### 
### Created by X-TOOL on Wed Dec 13 14:19:14 2017
### 

@<TRIPOS>MOLECULE
5hjq_ligand
   33    33     1     0     0
SMALL
GAST_HUCK


@<TRIPOS>ATOM
      1 C1         19.1540   11.1800  125.9630 C.3       1 I3P         0.1460
      2 C2         19.2720    9.6720  125.8250 C.3       1 I3P         0.1168
      3 C3         17.9440    9.0130  125.4490 C.3       1 I3P         0.1172
      4 C4         16.9600    9.8360  124.6170 C.3       1 I3P         0.1503
      5 C5         17.2820   11.2950  124.3090 C.3       1 I3P         0.1506
      6 C6         18.7130   11.7360  124.6450 C.3       1 I3P         0.1215
      7 O1         20.4070   11.8000  126.3070 O.3       1 I3P        -0.2676
      8 O2         20.2070    9.3860  124.8270 O.3       1 I3P        -0.3861
      9 O3         18.2260    7.8140  124.7320 O.3       1 I3P        -0.3861
     10 O4         15.6940    9.8020  125.3050 O.3       1 I3P        -0.2672
     11 O5         17.0520   11.5200  122.9390 O.3       1 I3P        -0.2672
     12 O6         18.7790   13.1570  124.7080 O.3       1 I3P        -0.3858
     13 P1         21.5070   11.0440  127.2020 P.3       1 I3P         0.2013
     14 O11        22.1480    9.9630  126.4060 O.co2     1 I3P        -0.5537
     15 O12        22.5700   12.0410  127.6060 O.co2     1 I3P        -0.5537
     16 O13        20.8620   10.4620  128.4740 O.co2     1 I3P        -0.5537
     17 P4         14.4870    8.9920  124.6210 P.3       1 I3P         0.2013
     18 O41        14.9950    8.2870  123.3860 O.co2     1 I3P        -0.5537
     19 O42        13.3810    9.9760  124.2350 O.co2     1 I3P        -0.5537
     20 O43        13.9280    7.9540  125.6230 O.co2     1 I3P        -0.5537
     21 P5         16.6930   12.9700  122.4410 P.3       1 I3P         0.2013
     22 O51        16.1550   12.9000  121.0590 O.co2     1 I3P        -0.5537
     23 O52        15.6470   13.5710  123.3450 O.co2     1 I3P        -0.5537
     24 O53        17.9200   13.8440  122.4460 O.co2     1 I3P        -0.5537
     25 H1         18.4101   11.4138  126.7388 H         1 I3P         0.0703
     26 H2         19.6162    9.2548  126.7828 H         1 I3P         0.0650
     27 H3         17.4353    8.7550  126.3896 H         1 I3P         0.0650
     28 H4         16.8577    9.3246  123.6485 H         1 I3P         0.0706
     29 H5         16.5936   11.9207  124.8960 H         1 I3P         0.0706
     30 H6         19.3902   11.3743  123.8572 H         1 I3P         0.0654
     31 H7         21.0380    9.7899  125.0480 H         1 I3P         0.2100
     32 H8         18.6080    8.0323  123.8900 H         1 I3P         0.2100
     33 H9         18.5267   13.5222  123.8680 H         1 I3P         0.2100
@<TRIPOS>BOND
     1    1    2 1  
     2    1    6 1  
     3    1    7 1  
     4    2    3 1  
     5    2    8 1  
     6    3    4 1  
     7    3    9 1  
     8    4    5 1  
     9    4   10 1  
    10    5    6 1  
    11    5   11 1  
    12    6   12 1  
    13    7   13 1  
    14   10   17 1  
    15   11   21 1  
    16   13   14 ar 
    17   13   15 ar 
    18   13   16 ar 
    19   17   18 ar 
    20   17   19 ar 
    21   17   20 ar 
    22   21   22 ar 
    23   21   23 ar 
    24   21   24 ar 
    25    1   25 1  
    26    2   26 1  
    27    3   27 1  
    28    4   28 1  
    29    5   29 1  
    30    6   30 1  
    31    8   31 1  
    32    9   32 1  
    33   12   33 1  
@<TRIPOS>SUBSTRUCTURE
     1 I3P         1

