### 
### Created by X-TOOL on Fri Nov 18 12:37:50 2016
### 

@<TRIPOS>MOLECULE
1dqn_ligand
   39    41     1     0     0
SMALL
GAST_HUCK


@<TRIPOS>ATOM
      1 P          23.4040   11.0060   47.1590 P.3       1 IMU         0.2010
      2 C2         18.0050    9.8050   54.4590 C.2       1 IMU         0.2207
      3 O1P        24.0260   11.8820   48.1770 O.co2     1 IMU        -0.5537
      4 O2P        22.7370   11.7560   46.0770 O.co2     1 IMU        -0.5537
      5 O3P        24.4530   10.0810   46.6370 O.co2     1 IMU        -0.5537
      6 O5'        22.4130   10.0680   47.9320 O.3       1 IMU        -0.2704
      7 C5'        21.7530    8.9170   47.3940 C.3       1 IMU         0.1233
      8 C4'        20.9110    8.2770   48.4380 C.3       1 IMU         0.0361
      9 N4'        21.4180    8.3900   49.8160 N.4       1 IMU         0.2436
     10 C3'        19.5220    8.8420   48.5160 C.3       1 IMU         0.1320
     11 O3'        18.7800    8.4630   47.3580 O.3       1 IMU        -0.3832
     12 C2'        19.0780    8.2690   49.7960 C.3       1 IMU         0.1325
     13 O2'        18.5730    6.9360   49.6500 O.3       1 IMU        -0.3822
     14 C1'        20.3140    8.4140   50.7730 C.3       1 IMU         0.0233
     15 C9         20.1040    9.7860   51.4320 C.2       1 IMU        -0.0005
     16 C8         20.6030   11.0340   51.0080 C.2       1 IMU         0.0195
     17 N7         20.2430   12.0520   51.7560 N.pl3     1 IMU        -0.2946
     18 C5         19.4580   11.4860   52.7440 C.2       1 IMU         0.1229
     19 C6         18.7640   12.1070   53.8530 C.2       1 IMU         0.2353
     20 O6         18.7340   13.2870   54.1320 O.2       1 IMU        -0.4038
     21 N1         18.0630   11.1930   54.6610 N.am      1 IMU        -0.1858
     22 N2         17.2950    9.0910   55.3270 N.pl3     1 IMU        -0.2850
     23 N3         18.6530    9.1980   53.4000 N.2       1 IMU        -0.3286
     24 C4         19.3640   10.0890   52.5760 C.2       1 IMU        -0.0042
     25 H1         22.5063    8.1968   47.0422 H         1 IMU         0.0670
     26 H2         21.1166    9.2234   46.5507 H         1 IMU         0.0670
     27 H3         20.8458    7.2101   48.1782 H         1 IMU         0.0904
     28 H4         21.9504    9.2414   49.9038 H         1 IMU         0.2029
     29 H5         22.0118    7.6003   50.0158 H         1 IMU         0.2029
     30 H6         19.5342    9.9403   48.5758 H         1 IMU         0.0680
     31 H7         18.7319    7.5154   47.3102 H         1 IMU         0.2102
     32 H8         18.2540    8.8813   50.1910 H         1 IMU         0.0692
     33 H9         17.8306    6.9429   49.0572 H         1 IMU         0.2103
     34 H10        20.3952    7.6129   51.5224 H         1 IMU         0.0958
     35 H11        21.2370   11.1455   50.1296 H         1 IMU         0.0774
     36 H12        20.4891   13.0448   51.6345 H         1 IMU         0.2247
     37 H13        17.5643   11.5631   55.4448 H         1 IMU         0.2487
     38 H14        17.2247    8.0692   55.2178 H         1 IMU         0.1874
     39 H15        16.8152    9.5596   56.1088 H         1 IMU         0.1874
@<TRIPOS>BOND
     1    1    3 ar 
     2    1    4 ar 
     3    1    5 ar 
     4    1    6 1  
     5    6    7 1  
     6    7    8 1  
     7    8    9 1  
     8    8   10 1  
     9    9   14 1  
    10   10   11 1  
    11   10   12 1  
    12   12   13 1  
    13   12   14 1  
    14   14   15 1  
    15   15   16 2  
    16   15   24 1  
    17   16   17 1  
    18   17   18 1  
    19   18   19 1  
    20   18   24 2  
    21   19   20 2  
    22   19   21 am 
    23   24   23 1  
    24   23    2 2  
    25    2   22 1  
    26   21    2 am 
    27    7   25 1  
    28    7   26 1  
    29    8   27 1  
    30    9   28 1  
    31    9   29 1  
    32   10   30 1  
    33   11   31 1  
    34   12   32 1  
    35   13   33 1  
    36   14   34 1  
    37   16   35 1  
    38   17   36 1  
    39   21   37 1  
    40   22   38 1  
    41   22   39 1  
@<TRIPOS>SUBSTRUCTURE
     1 IMU         1

