### 
### Created by X-TOOL on Fri Nov 18 17:09:32 2016
### 

@<TRIPOS>MOLECULE
4dq2_ligand
   64    68     1     0     0
SMALL
GAST_HUCK


@<TRIPOS>ATOM
      1 P          53.2020   18.0870   17.6130 P.3       1 BTX         0.2571
      2 O1P        52.9700   18.7140   16.3100 O.co2     1 BTX        -0.6176
      3 O2P        54.2500   17.0150   17.8030 O.co2     1 BTX        -0.6176
      4 O5'        54.0190   19.0330   18.5860 O.3       1 BTX        -0.2513
      5 C5'        53.7860   20.3090   18.9060 C.3       1 BTX         0.1124
      6 C4'        54.9740   21.2160   18.8090 C.3       1 BTX         0.1189
      7 O4'        54.2460   22.4780   19.0250 O.3       1 BTX        -0.3364
      8 C3'        56.0600   21.2070   19.8240 C.3       1 BTX         0.1149
      9 O3'        57.3170   20.7970   19.3340 O.3       1 BTX        -0.3864
     10 C2'        56.2580   22.7010   20.0690 C.3       1 BTX         0.1385
     11 O2'        56.8320   23.3090   18.9220 O.3       1 BTX        -0.3836
     12 C1'        54.8930   23.3350   19.9460 C.3       1 BTX         0.2010
     13 N9         54.0490   23.3010   21.1660 N.pl3     1 BTX        -0.1919
     14 C8         54.2280   22.5970   22.2970 C.2       1 BTX         0.1123
     15 N7         53.2130   22.9260   23.1060 N.2       1 BTX        -0.2958
     16 C5         52.3990   23.7970   22.4950 C.ar      1 BTX         0.1045
     17 C6         51.1930   24.5120   22.8610 C.ar      1 BTX         0.1298
     18 N6         50.5630   24.3720   24.0410 N.pl3     1 BTX        -0.3152
     19 N1         50.6770   25.3630   21.9870 N.ar      1 BTX        -0.2698
     20 C2         51.2550   25.6680   20.7070 C.ar      1 BTX         0.0533
     21 N3         52.4630   24.9630   20.4420 N.ar      1 BTX        -0.2714
     22 C4         52.9530   24.0510   21.2730 C.ar      1 BTX         0.1613
     23 CBB        50.4050   17.4520   18.1000 C.3       1 BTX         0.1012
     24 OBB        51.8590   17.6360   18.3940 O.3       1 BTX        -0.2446
     25 CAB        49.9500   17.0980   19.2330 C.2       1 BTX        -0.0680
     26 C9B        49.5270   16.6980   20.3720 C.2       1 BTX        -0.0961
     27 C8B        48.3150   16.9360   21.1550 C.3       1 BTX        -0.0353
     28 C7B        48.6560   16.9320   22.6470 C.3       1 BTX        -0.0323
     29 C2B        47.4270   16.4520   23.3900 C.3       1 BTX         0.0317
     30 S1B        47.2630   17.2930   24.9230 S.3       1 BTX        -0.1526
     31 C6B        46.1310   15.9910   25.2390 C.3       1 BTX         0.0190
     32 C5B        46.8140   14.6830   24.8870 C.3       1 BTX         0.0750
     33 N1B        47.8070   14.2410   25.8400 N.am      1 BTX        -0.2671
     34 C3B        49.0630   14.2890   25.3630 C.2       1 BTX         0.2580
     35 O3B        50.1070   13.9320   26.0200 O.2       1 BTX        -0.4008
     36 N2B        49.0410   14.8460   24.1110 N.am      1 BTX        -0.2668
     37 C4B        47.6630   14.9790   23.6430 C.3       1 BTX         0.0776
     38 H1         53.4185   20.3387   19.9424 H         1 BTX         0.0647
     39 H2         53.0080   20.6932   18.2299 H         1 BTX         0.0647
     40 H3         55.4297   21.1340   17.8112 H         1 BTX         0.0651
     41 H4         55.7737   20.6378   20.7207 H         1 BTX         0.0648
     42 H5         57.5922   21.3847   18.6401 H         1 BTX         0.2100
     43 H6         56.7898   22.9087   21.0093 H         1 BTX         0.0676
     44 H7         57.6734   22.9074   18.7397 H         1 BTX         0.2101
     45 H8         54.9797   24.3681   19.5783 H         1 BTX         0.0996
     46 H9         55.0360   21.8993   22.5121 H         1 BTX         0.1349
     47 H10        49.7081   24.9125   24.2357 H         1 BTX         0.1820
     48 H11        50.9354   23.7243   24.7500 H         1 BTX         0.1820
     49 H12        50.8125   26.3692   20.0087 H         1 BTX         0.0996
     50 H13        50.2459   16.6698   17.3431 H         1 BTX         0.0746
     51 H14        49.9439   18.3909   17.7596 H         1 BTX         0.0746
     52 H15        49.2722   17.9501   19.2537 H         1 BTX         0.0476
     53 H16        50.2271   16.0297   20.8710 H         1 BTX         0.0451
     54 H17        47.5824   16.1427   20.9452 H         1 BTX         0.0388
     55 H18        47.8878   17.9117   20.8802 H         1 BTX         0.0388
     56 H19        48.9209   17.9479   22.9751 H         1 BTX         0.0296
     57 H20        49.5001   16.2531   22.8381 H         1 BTX         0.0296
     58 H21        46.5226   16.6049   22.7828 H         1 BTX         0.0437
     59 H22        45.2305   16.1205   24.6207 H         1 BTX         0.0399
     60 H23        45.8489   15.9909   26.3022 H         1 BTX         0.0399
     61 H24        46.0633   13.8982   24.7124 H         1 BTX         0.0584
     62 H25        47.5818   13.9301   26.7634 H         1 BTX         0.1849
     63 H26        49.8506   15.1215   23.5928 H         1 BTX         0.1849
     64 H27        47.4305   14.3411   22.7776 H         1 BTX         0.0587
@<TRIPOS>BOND
     1    1    2 ar 
     2    1    3 ar 
     3    1    4 1  
     4    1   24 1  
     5    4    5 1  
     6    5    6 1  
     7    6    7 1  
     8    6    8 1  
     9    7   12 1  
    10    8    9 1  
    11    8   10 1  
    12   10   11 1  
    13   10   12 1  
    14   12   13 1  
    15   13   14 1  
    16   13   22 1  
    17   14   15 2  
    18   15   16 1  
    19   16   17 ar 
    20   16   22 ar 
    21   17   18 1  
    22   17   19 ar 
    23   19   20 ar 
    24   20   21 ar 
    25   21   22 ar 
    26   24   23 1  
    27   23   25 1  
    28   25   26 2  
    29   26   27 1  
    30   27   28 1  
    31   28   29 1  
    32   29   30 1  
    33   29   37 1  
    34   30   31 1  
    35   31   32 1  
    36   32   33 1  
    37   32   37 1  
    38   33   34 am 
    39   34   35 2  
    40   34   36 am 
    41   36   37 1  
    42    5   38 1  
    43    5   39 1  
    44    6   40 1  
    45    8   41 1  
    46    9   42 1  
    47   10   43 1  
    48   11   44 1  
    49   12   45 1  
    50   14   46 1  
    51   18   47 1  
    52   18   48 1  
    53   20   49 1  
    54   23   50 1  
    55   23   51 1  
    56   25   52 1  
    57   26   53 1  
    58   27   54 1  
    59   27   55 1  
    60   28   56 1  
    61   28   57 1  
    62   29   58 1  
    63   31   59 1  
    64   31   60 1  
    65   32   61 1  
    66   33   62 1  
    67   36   63 1  
    68   37   64 1  
@<TRIPOS>SUBSTRUCTURE
     1 BTX         1

