### 
### Created by X-TOOL on Fri Nov 18 12:05:35 2016
### 

@<TRIPOS>MOLECULE
1amk_ligand
   11    10     1     0     0
SMALL
GAST_HUCK


@<TRIPOS>ATOM
      1 P           8.0940   -1.7350   18.4460 P.3       1 MOL         0.2032
      2 O2P         8.9420   -0.5090   18.7230 O.co2     1 MOL        -0.5536
      3 O3P         8.4690   -3.1080   18.9080 O.co2     1 MOL        -0.5536
      4 O4P         6.5410   -1.3810   18.5750 O.co2     1 MOL        -0.5536
      5 O1P         7.9310   -2.0970   16.8860 O.3       1 MOL        -0.2622
      6 C2          9.1670   -2.4150   16.2890 C.3       1 MOL         0.1305
      7 C1          8.9070   -2.4510   14.7910 C.2       1 MOL         0.0653
      8 O1          9.8920   -2.1350   13.9990 O.co2     1 MOL        -0.5663
      9 O2          7.8380   -2.8150   14.3180 O.co2     1 MOL        -0.5663
     10 H1          9.5208   -3.3956   16.6399 H         1 MOL         0.0783
     11 H2          9.9171   -1.6471   16.5291 H         1 MOL         0.0783
@<TRIPOS>BOND
     1    1    2 ar 
     2    1    3 ar 
     3    1    4 ar 
     4    1    5 1  
     5    5    6 1  
     6    6    7 1  
     7    7    8 ar 
     8    7    9 ar 
     9    6   10 1  
    10    6   11 1  
@<TRIPOS>SUBSTRUCTURE
     1 MOL         1

