### 
### Created by X-TOOL on Fri Nov 18 15:04:44 2016
### 

@<TRIPOS>MOLECULE
2q8z_ligand
   34    35     1     0     0
SMALL
GAST_HUCK


@<TRIPOS>ATOM
      1 O4          5.2270  -23.3300  -20.6720 O.2       1 NUP        -0.3824
      2 C4          5.9620  -23.8770  -21.4960 C.2       1 NUP         0.2277
      3 N2          5.8170  -25.1960  -21.6870 N.am      1 NUP        -0.1744
      4 C2          6.5890  -25.8660  -22.5730 C.2       1 NUP         0.3374
      5 O2          6.4300  -27.0960  -22.7290 O.2       1 NUP        -0.3762
      6 C5          6.8730  -23.0950  -22.2070 C.3       1 NUP         0.1270
      7 C6          7.6720  -23.7650  -23.1120 C.2       1 NUP         0.1405
      8 N3          8.5700  -23.0610  -23.8290 N.2       1 NUP        -0.3941
      9 N1          7.5590  -25.1650  -23.3120 N.am      1 NUP        -0.1341
     10 C1'         8.4490  -25.8260  -24.2840 C.3       1 NUP         0.2076
     11 O4'         7.7550  -26.3910  -25.4040 O.3       1 NUP        -0.3368
     12 C2'         9.2070  -26.9930  -23.6360 C.3       1 NUP         0.1381
     13 O2'        10.4120  -26.6700  -22.9170 O.3       1 NUP        -0.3837
     14 C3'         9.4860  -27.8550  -24.8670 C.3       1 NUP         0.1148
     15 O3'        10.6040  -27.2840  -25.5580 O.3       1 NUP        -0.3864
     16 C4'         8.2330  -27.6860  -25.7240 C.3       1 NUP         0.1181
     17 C5'         7.1340  -28.7070  -25.4480 C.3       1 NUP         0.1071
     18 O5'         7.4920  -29.8980  -26.1220 O.3       1 NUP        -0.2734
     19 P           6.6050  -31.2480  -26.0850 P.3       1 NUP         0.2008
     20 O1P         5.5150  -31.2040  -27.1510 O.co2     1 NUP        -0.5537
     21 O2P         7.6420  -32.3150  -26.3270 O.co2     1 NUP        -0.5537
     22 O3P         6.0030  -31.2750  -24.6990 O.co2     1 NUP        -0.5537
     23 H1          5.1249  -25.6941  -21.1645 H         1 NUP         0.2271
     24 H2          7.5322  -22.6007  -21.4783 H         1 NUP         0.0794
     25 H3          6.3029  -22.3345  -22.7607 H         1 NUP         0.0794
     26 H4          9.1630  -23.5309  -24.4950 H         1 NUP         0.0533
     27 H5          9.1683  -25.0778  -24.6483 H         1 NUP         0.0989
     28 H6          8.5412  -27.5211  -22.9376 H         1 NUP         0.0675
     29 H7         10.2056  -26.0730  -22.2074 H         1 NUP         0.2101
     30 H8          9.6713  -28.9078  -24.6075 H         1 NUP         0.0648
     31 H9         10.7973  -27.8039  -26.3294 H         1 NUP         0.2100
     32 H10         8.5064  -27.7450  -26.7878 H         1 NUP         0.0650
     33 H11         6.1702  -28.3351  -25.8259 H         1 NUP         0.0639
     34 H12         7.0563  -28.8944  -24.3669 H         1 NUP         0.0639
@<TRIPOS>BOND
     1    1    2 2  
     2    2    3 am 
     3    2    6 1  
     4    3    4 am 
     5    4    5 2  
     6    4    9 am 
     7    6    7 1  
     8    7    8 2  
     9    7    9 1  
    10    9   10 1  
    11   10   11 1  
    12   10   12 1  
    13   11   16 1  
    14   12   13 1  
    15   12   14 1  
    16   14   15 1  
    17   14   16 1  
    18   16   17 1  
    19   17   18 1  
    20   18   19 1  
    21   19   20 ar 
    22   19   21 ar 
    23   19   22 ar 
    24    3   23 1  
    25    6   24 1  
    26    6   25 1  
    27    8   26 1  
    28   10   27 1  
    29   12   28 1  
    30   13   29 1  
    31   14   30 1  
    32   15   31 1  
    33   16   32 1  
    34   17   33 1  
    35   17   34 1  
@<TRIPOS>SUBSTRUCTURE
     1 NUP         1

