### 
### Created by X-TOOL on Fri Nov 18 18:00:52 2016
### 

@<TRIPOS>MOLECULE
4or6_ligand
   41    43     1     0     0
SMALL
GAST_HUCK


@<TRIPOS>ATOM
      1 PB        -12.3650  -24.5840   -1.8990 P.3       1 GDP         0.2069
      2 O1B       -12.5420  -25.9940   -1.3900 O.co2     1 GDP        -0.5891
      3 O2B       -13.5430  -23.7380   -1.4780 O.co2     1 GDP        -0.5891
      4 O3B       -12.2790  -24.5950   -3.4070 O.co2     1 GDP        -0.5891
      5 O3A       -11.0170  -23.9400   -1.3000 O.3       1 GDP        -0.1548
      6 PA         -9.5990  -24.7000   -1.3760 P.3       1 GDP         0.3276
      7 O1A        -9.7410  -26.1790   -1.1040 O.co2     1 GDP        -0.5556
      8 O2A        -8.6140  -24.0690   -0.4220 O.co2     1 GDP        -0.5556
      9 O5'        -9.1390  -24.4430   -2.8930 O.3       1 GDP        -0.2436
     10 C5'        -8.7410  -23.1390   -3.2960 C.3       1 GDP         0.1132
     11 C4'        -7.6430  -23.2510   -4.3380 C.3       1 GDP         0.1190
     12 O4'        -7.7690  -22.1700   -5.2590 O.3       1 GDP        -0.3347
     13 C3'        -6.2820  -23.1200   -3.6800 C.3       1 GDP         0.1151
     14 O3'        -5.4410  -24.1780   -4.1400 O.3       1 GDP        -0.3864
     15 C2'        -5.7220  -21.7980   -4.1570 C.3       1 GDP         0.1407
     16 O2'        -4.3290  -21.9290   -4.4450 O.3       1 GDP        -0.3835
     17 C1'        -6.5210  -21.4950   -5.4120 C.3       1 GDP         0.2218
     18 N9         -6.7810  -20.0450   -5.5590 N.pl3     1 GDP        -0.0954
     19 C8         -7.0360  -19.1630   -4.5750 C.2       1 GDP         0.1855
     20 N7         -7.2440  -17.9200   -5.0840 N.2       1 GDP        -0.1929
     21 C5         -7.1350  -18.0070   -6.4240 C.2       1 GDP         0.2558
     22 C6         -7.2400  -17.0810   -7.5750 C.2       1 GDP         0.2628
     23 O6         -7.4920  -15.8690   -7.4030 O.2       1 GDP        -0.3594
     24 N1         -7.0570  -17.5820   -8.8040 N.am      1 GDP        -0.2478
     25 C2         -6.7850  -18.8830   -9.0210 C.cat     1 GDP         0.2041
     26 N2         -6.6140  -19.3150  -10.2940 N.pl3     1 GDP        -0.3327
     27 N3         -6.6740  -19.7860   -8.0160 N.pl3     1 GDP        -0.1901
     28 C4         -6.8360  -19.4120   -6.7270 C.2       1 GDP         0.3268
     29 H1         -8.3653  -22.5833   -2.4242 H         1 GDP         0.0648
     30 H2         -9.6030  -22.6078   -3.7258 H         1 GDP         0.0648
     31 H3         -7.7212  -24.2150   -4.8621 H         1 GDP         0.0651
     32 H4         -6.3661  -23.1433   -2.5835 H         1 GDP         0.0648
     33 H5         -4.5866  -24.1021   -3.7318 H         1 GDP         0.2100
     34 H6         -5.8690  -21.0117   -3.4019 H         1 GDP         0.0677
     35 H7         -4.2072  -22.5825   -5.1237 H         1 GDP         0.2101
     36 H8         -5.9854  -21.8647   -6.2988 H         1 GDP         0.1021
     37 H9         -7.0709  -19.4114   -3.5153 H         1 GDP         0.1823
     38 H10        -7.1249  -16.9669   -9.5895 H         1 GDP         0.1819
     39 H11        -6.4054  -20.3068  -10.4776 H         1 GDP         0.1774
     40 H12        -6.6926  -18.6515  -11.0779 H         1 GDP         0.1774
     41 H13        -6.4635  -20.7697   -8.2373 H         1 GDP         0.2519
@<TRIPOS>BOND
     1    1    2 ar 
     2    1    3 ar 
     3    1    4 ar 
     4    1    5 1  
     5    5    6 1  
     6    6    7 ar 
     7    6    8 ar 
     8    6    9 1  
     9    9   10 1  
    10   10   11 1  
    11   11   12 1  
    12   11   13 1  
    13   12   17 1  
    14   13   14 1  
    15   13   15 1  
    16   15   16 1  
    17   15   17 1  
    18   17   18 1  
    19   18   19 1  
    20   18   28 1  
    21   19   20 2  
    22   20   21 1  
    23   21   22 1  
    24   21   28 2  
    25   22   23 2  
    26   22   24 am 
    27   24   25 ar 
    28   25   26 ar 
    29   25   27 ar 
    30   27   28 1  
    31   10   29 1  
    32   10   30 1  
    33   11   31 1  
    34   13   32 1  
    35   14   33 1  
    36   15   34 1  
    37   16   35 1  
    38   17   36 1  
    39   19   37 1  
    40   24   38 1  
    41   26   39 1  
    42   26   40 1  
    43   27   41 1  
@<TRIPOS>SUBSTRUCTURE
     1 GDP         1

