### 
### Created by X-TOOL on Fri Nov 18 14:24:57 2016
### 

@<TRIPOS>MOLECULE
2isw_ligand
   14    13     1     0     0
SMALL
GAST_HUCK


@<TRIPOS>ATOM
      1 C1        -24.8050   15.2140   57.1340 C.2       1 PGH         0.2297
      2 C2        -26.3380   14.9260   56.4970 C.3       1 PGH         0.1686
      3 N2        -24.3690   14.0710   57.5790 N.am      1 PGH        -0.1620
      4 O2        -23.0360   14.2630   58.1280 O.3       1 PGH        -0.2717
      5 O1        -24.3110   16.3160   57.1080 O.2       1 PGH        -0.3940
      6 O1P       -27.2340   15.6100   57.5300 O.3       1 PGH        -0.2560
      7 O2P       -29.4690   15.8600   58.5260 O.co2     1 PGH        -0.5536
      8 O3P       -29.1090   14.1040   56.9150 O.co2     1 PGH        -0.5536
      9 O4P       -29.1150   16.5000   56.0800 O.co2     1 PGH        -0.5536
     10 P         -28.8030   15.5220   57.2660 P.3       1 PGH         0.2041
     11 H1        -26.5500   13.8485   56.4326 H         1 PGH         0.0857
     12 H2        -26.4516   15.3821   55.5025 H         1 PGH         0.0857
     13 H3        -24.8678   13.2048   57.5484 H         1 PGH         0.2217
     14 H4        -22.7075   13.4342   58.4562 H         1 PGH         0.2490
@<TRIPOS>BOND
     1    1    2 1  
     2    1    3 am 
     3    1    5 2  
     4    2    6 1  
     5    3    4 1  
     6    6   10 1  
     7   10    7 ar 
     8   10    8 ar 
     9   10    9 ar 
    10    2   11 1  
    11    2   12 1  
    12    3   13 1  
    13    4   14 1  
@<TRIPOS>SUBSTRUCTURE
     1 PGH         1

