### 
### Created by X-TOOL on Fri Nov 18 15:32:01 2016
### 

@<TRIPOS>MOLECULE
3fzy_ligand
   42    42     1     0     0
SMALL
GAST_HUCK


@<TRIPOS>ATOM
      1 C1          6.4020   20.0970   39.0610 C.3       1 IHP         0.1556
      2 C2          7.5470   19.5110   39.8930 C.3       1 IHP         0.1556
      3 C3          7.4860   17.9670   39.8730 C.3       1 IHP         0.1556
      4 C4          7.5260   17.4010   38.4550 C.3       1 IHP         0.1556
      5 C5          6.3130   17.9660   37.7100 C.3       1 IHP         0.1556
      6 C6          6.4440   19.5040   37.6510 C.3       1 IHP         0.1556
      7 O11         6.4790   21.5160   38.9940 O.3       1 IHP        -0.2668
      8 P1          5.6350   22.5600   39.8720 P.3       1 IHP         0.2013
      9 O21         6.0950   23.8190   39.2270 O.co2     1 IHP        -0.5537
     10 O31         6.1250   22.3930   41.2950 O.co2     1 IHP        -0.5537
     11 O41         4.1770   22.1750   39.5750 O.co2     1 IHP        -0.5537
     12 O12         8.7880   19.9240   39.3280 O.3       1 IHP        -0.2668
     13 P2          9.7740   21.0360   39.9000 P.3       1 IHP         0.2013
     14 O22        10.2510   21.7120   38.6320 O.co2     1 IHP        -0.5537
     15 O32         8.9690   21.9300   40.8170 O.co2     1 IHP        -0.5537
     16 O42        10.8080   20.2320   40.6340 O.co2     1 IHP        -0.5537
     17 O13         8.5360   17.3900   40.6520 O.3       1 IHP        -0.2668
     18 P3          8.2850   16.3370   41.8520 P.3       1 IHP         0.2013
     19 O23         9.1040   15.1880   41.3160 O.co2     1 IHP        -0.5537
     20 O33         6.8400   16.0450   41.8720 O.co2     1 IHP        -0.5537
     21 O43         8.7840   16.9420   43.1200 O.co2     1 IHP        -0.5537
     22 O14         7.4750   15.9600   38.4740 O.3       1 IHP        -0.2668
     23 P4          8.6910   15.0120   38.0250 P.3       1 IHP         0.2013
     24 O24         9.7960   15.1550   39.0500 O.co2     1 IHP        -0.5537
     25 O34         7.9910   13.6560   38.0380 O.co2     1 IHP        -0.5537
     26 O44         9.1260   15.3180   36.6300 O.co2     1 IHP        -0.5537
     27 O15         6.1710   17.3460   36.4340 O.3       1 IHP        -0.2668
     28 P5          4.7540   16.7730   35.8610 P.3       1 IHP         0.2013
     29 O25         4.0000   16.5330   37.1300 O.co2     1 IHP        -0.5537
     30 O35         4.1480   17.8180   34.9530 O.co2     1 IHP        -0.5537
     31 O45         5.1300   15.5110   35.1290 O.co2     1 IHP        -0.5537
     32 O16         5.3790   20.0750   36.8800 O.3       1 IHP        -0.2668
     33 P6          5.6350   20.8210   35.5080 P.3       1 IHP         0.2013
     34 O26         5.5140   19.7630   34.4520 O.co2     1 IHP        -0.5537
     35 O36         4.4770   21.7770   35.5240 O.co2     1 IHP        -0.5537
     36 O46         7.0330   21.4540   35.5060 O.co2     1 IHP        -0.5537
     37 H1          5.4481   19.8220   39.5347 H         1 IHP         0.0710
     38 H2          7.4701   19.8704   40.9298 H         1 IHP         0.0710
     39 H3          6.5280   17.6705   40.3249 H         1 IHP         0.0710
     40 H4          8.4522   17.7205   37.9549 H         1 IHP         0.0710
     41 H5          5.4090   17.7296   38.2904 H         1 IHP         0.0710
     42 H6          7.4051   19.7592   37.1807 H         1 IHP         0.0710
@<TRIPOS>BOND
     1    1    2 1  
     2    1    6 1  
     3    1    7 1  
     4    2    3 1  
     5    2   12 1  
     6    3    4 1  
     7    3   17 1  
     8    4    5 1  
     9    4   22 1  
    10    5    6 1  
    11    5   27 1  
    12    6   32 1  
    13    7    8 1  
    14    8    9 ar 
    15    8   10 ar 
    16    8   11 ar 
    17   12   13 1  
    18   13   14 ar 
    19   13   15 ar 
    20   13   16 ar 
    21   17   18 1  
    22   18   19 ar 
    23   18   20 ar 
    24   18   21 ar 
    25   22   23 1  
    26   23   24 ar 
    27   23   25 ar 
    28   23   26 ar 
    29   27   28 1  
    30   28   29 ar 
    31   28   30 ar 
    32   28   31 ar 
    33   32   33 1  
    34   33   34 ar 
    35   33   35 ar 
    36   33   36 ar 
    37    1   37 1  
    38    2   38 1  
    39    3   39 1  
    40    4   40 1  
    41    5   41 1  
    42    6   42 1  
@<TRIPOS>SUBSTRUCTURE
     1 IHP         1

