### 
### Created by X-TOOL on Fri Nov 18 11:59:25 2016
### 

@<TRIPOS>MOLECULE
1lcp_ligand
   23    22     1     0     0
SMALL
GAST_HUCK


@<TRIPOS>ATOM
      1 CA         -1.7910   58.9830   45.2250 C.3       1 PLU         0.0444
      2 CB         -2.4330   59.5420   43.9460 C.3       1 PLU         0.0083
      3 CG         -3.8830   59.0740   43.6130 C.3       1 PLU        -0.0402
      4 CD1        -4.0270   57.5570   43.5480 C.3       1 PLU        -0.0624
      5 CD2        -4.3960   59.6900   42.2990 C.3       1 PLU        -0.0624
      6 N          -2.6470   59.2930   46.3660 N.4       1 PLU         0.2328
      7 P          -0.1880   59.7830   45.5110 P.3       1 PLU         0.1102
      8 O1          0.2770   59.3250   46.9120 O.co2     1 PLU        -0.5586
      9 O2         -0.3540   61.3360   45.5000 O.co2     1 PLU        -0.5586
     10 O3          0.7680   59.3490   44.3880 O.co2     1 PLU        -0.5586
     11 H1         -1.6598   57.8949   45.1313 H         1 PLU         0.1049
     12 H2         -1.7904   59.2552   43.1006 H         1 PLU         0.0338
     13 H3         -2.4518   60.6381   44.0370 H         1 PLU         0.0338
     14 H4         -4.5307   59.4324   44.4267 H         1 PLU         0.0298
     15 H5         -5.0692   57.2975   43.3103 H         1 PLU         0.0232
     16 H6         -3.7530   57.1207   44.5199 H         1 PLU         0.0232
     17 H7         -3.3627   57.1587   42.7669 H         1 PLU         0.0232
     18 H8         -4.2935   60.7844   42.3426 H         1 PLU         0.0232
     19 H9         -5.4547   59.4262   42.1591 H         1 PLU         0.0232
     20 H10        -3.8064   59.2998   41.4563 H         1 PLU         0.0232
     21 H11        -3.5486   58.8611   46.2368 H         1 PLU         0.2011
     22 H12        -2.7604   60.2919   46.4394 H         1 PLU         0.2011
     23 H13        -2.2232   58.9400   47.2097 H         1 PLU         0.2011
@<TRIPOS>BOND
     1    1    7 1  
     2    1    6 1  
     3    1    2 1  
     4    2    3 1  
     5    3    5 1  
     6    3    4 1  
     7    7   10 ar 
     8    7    9 ar 
     9    7    8 ar 
    10    1   11 1  
    11    2   12 1  
    12    2   13 1  
    13    3   14 1  
    14    4   15 1  
    15    4   16 1  
    16    4   17 1  
    17    5   18 1  
    18    5   19 1  
    19    5   20 1  
    20    6   21 1  
    21    6   22 1  
    22    6   23 1  
@<TRIPOS>SUBSTRUCTURE
     1 PLU         1

