### 
### Created by X-TOOL on Fri Nov 18 15:31:22 2016
### 

@<TRIPOS>MOLECULE
3e12_ligand
   32    31     1     0     0
SMALL
GAST_HUCK


@<TRIPOS>ATOM
      1 O4P        39.7270   55.7430   13.7460 O.co2     1 KD0        -0.5537
      2 P          39.6260   55.9760   15.3180 P.3       1 KD0         0.2008
      3 O2P        39.1850   57.4810   15.6280 O.co2     1 KD0        -0.5537
      4 O3P        40.9090   55.6160   15.9830 O.co2     1 KD0        -0.5537
      5 O1P        38.4920   55.0150   15.7580 O.3       1 KD0        -0.2734
      6 C8         37.8650   55.1850   16.9500 C.3       1 KD0         0.1068
      7 C7         37.4430   53.8060   17.4370 C.3       1 KD0         0.1111
      8 O7         38.5460   53.2410   18.1550 O.3       1 KD0        -0.3865
      9 C6         36.2470   53.9850   18.3460 C.3       1 KD0         0.1118
     10 O6         35.1470   54.5220   17.5600 O.3       1 KD0        -0.3865
     11 C5         35.8220   52.6600   18.9970 C.3       1 KD0         0.1115
     12 O5         35.5660   51.6450   18.0140 O.3       1 KD0        -0.3864
     13 C4         34.5270   52.8820   19.7500 C.3       1 KD0         0.0995
     14 O4         34.6880   53.9870   20.6180 O.3       1 KD0        -0.3867
     15 C3         34.2040   51.6600   20.6120 C.3       1 KD0         0.0593
     16 C1         32.7440   51.7120   21.0630 C.2       1 KD0         0.1740
     17 O3         31.8340   51.4820   20.2610 O.2       1 KD0        -0.3576
     18 C2         32.4040   52.0100   22.5220 C.2       1 KD0         0.1249
     19 O1         31.1740   51.9720   22.8410 O.co2     1 KD0        -0.5464
     20 O2         33.3810   52.2120   23.3110 O.co2     1 KD0        -0.5464
     21 H1         36.9807   55.8266   16.8226 H         1 KD0         0.0639
     22 H2         38.5517   55.6467   17.6747 H         1 KD0         0.0639
     23 H3         37.1765   53.1600   16.5875 H         1 KD0         0.0646
     24 H4         38.3078   52.3772   18.4707 H         1 KD0         0.2100
     25 H5         36.5079   54.6990   19.1410 H         1 KD0         0.0647
     26 H6         35.4024   55.3590   17.1904 H         1 KD0         0.2100
     27 H7         36.6109   52.3210   19.6846 H         1 KD0         0.0648
     28 H8         36.3544   51.4908   17.5069 H         1 KD0         0.2100
     29 H9         33.7089   53.0699   19.0391 H         1 KD0         0.0646
     30 H10        34.9013   54.7600   20.1086 H         1 KD0         0.2101
     31 H11        34.8587   51.6539   21.4959 H         1 KD0         0.0525
     32 H12        34.3719   50.7450   20.0250 H         1 KD0         0.0525
@<TRIPOS>BOND
     1    1    2 ar 
     2    2    3 ar 
     3    2    4 ar 
     4    2    5 1  
     5    5    6 1  
     6    6    7 1  
     7    7    8 1  
     8    7    9 1  
     9    9   10 1  
    10    9   11 1  
    11   11   12 1  
    12   11   13 1  
    13   13   14 1  
    14   13   15 1  
    15   15   16 1  
    16   16   17 2  
    17   16   18 1  
    18   18   19 ar 
    19   18   20 ar 
    20    6   21 1  
    21    6   22 1  
    22    7   23 1  
    23    8   24 1  
    24    9   25 1  
    25   10   26 1  
    26   11   27 1  
    27   12   28 1  
    28   13   29 1  
    29   14   30 1  
    30   15   31 1  
    31   15   32 1  
@<TRIPOS>SUBSTRUCTURE
     1 KD0         1

