### 
### Created by X-TOOL on Wed Dec 13 14:20:50 2017
### 

@<TRIPOS>MOLECULE
5t0t_ligand
   38    40     1     0     0
SMALL
GAST_HUCK


@<TRIPOS>ATOM
      1 N1         18.2910    2.0070   -8.7440 N.1       1 MOL        -0.3283
      2 C16        18.8110    1.1320   -9.3210 C.1       1 MOL         0.0969
      3 C11        19.3590    0.1620   -9.9740 C.ar      1 MOL         0.0862
      4 C12        20.6610    0.3780  -10.4020 C.ar      1 MOL         0.0018
      5 C13        21.3350   -0.6230  -11.0660 C.ar      1 MOL         0.1229
      6 C14        20.7840   -1.8660  -11.3070 C.ar      1 MOL         0.0131
      7 C15        19.4850   -2.0890  -10.8370 C.ar      1 MOL         0.1356
      8 F3         18.9060   -3.2750  -11.0370 F         1 MOL        -0.1840
      9 C10        18.7770   -1.0910  -10.1750 C.ar      1 MOL        -0.0041
     10 O4         22.5860   -0.3120  -11.4830 O.3       1 MOL        -0.2622
     11 C2         23.6760   -0.4600  -10.6970 C.ar      1 MOL         0.1145
     12 C3         23.7360   -0.9230   -9.3800 C.ar      1 MOL        -0.0398
     13 C4         24.9620   -1.0600   -8.7010 C.ar      1 MOL        -0.0581
     14 C8         24.8200   -0.0850  -11.3170 C.ar      1 MOL         0.0334
     15 C9         24.9390    0.3490  -12.7400 C.3       1 MOL         0.1665
     16 F2         24.6430    1.6610  -13.0550 F         1 MOL        -0.2306
     17 C5         26.4320    0.0560  -12.9640 C.3       1 MOL         0.1729
     18 F1         27.0260    1.0100  -13.7570 F         1 MOL        -0.2358
     19 C7         26.0120   -0.2310  -10.6640 C.ar      1 MOL         0.0102
     20 C6         27.0400    0.2260  -11.6240 C.3       1 MOL         0.1214
     21 O1         27.0560    1.6570  -11.6270 O.3       1 MOL        -0.3776
     22 C1         26.1300   -0.7070   -9.3380 C.ar      1 MOL         0.0751
     23 S1         27.5660   -0.8550   -8.5680 S.o2      1 MOL        -0.0140
     24 O2         28.5200   -1.4700   -9.4890 O.2       1 MOL        -0.1720
     25 O3         27.6110   -1.7270   -7.4310 O.2       1 MOL        -0.1720
     26 C17        28.1490    0.6400   -8.1050 C.3       1 MOL         0.0572
     27 H1         21.1453    1.3296  -10.2148 H         1 MOL         0.0616
     28 H2         21.3337   -2.6354  -11.8371 H         1 MOL         0.0608
     29 H3         17.7733   -1.2863   -9.8152 H         1 MOL         0.0615
     30 H4         22.8163   -1.1831   -8.8685 H         1 MOL         0.0478
     31 H5         24.9857   -1.4399   -7.6860 H         1 MOL         0.0536
     32 H6         24.3086   -0.2916  -13.3742 H         1 MOL         0.0810
     33 H7         26.5852   -0.9528  -13.3749 H         1 MOL         0.0747
     34 H8         28.0194   -0.2526  -11.4771 H         1 MOL         0.0772
     35 H9         27.2635    1.9721  -10.7551 H         1 MOL         0.2129
     36 H10        29.1131    0.5143   -7.5906 H         1 MOL         0.0465
     37 H11        27.4300    1.1192   -7.4243 H         1 MOL         0.0465
     38 H12        28.2880    1.2711   -8.9951 H         1 MOL         0.0465
@<TRIPOS>BOND
     1    1    2 3  
     2    2    3 1  
     3    3    4 ar 
     4    3    9 ar 
     5    4    5 ar 
     6    5    6 ar 
     7    5   10 1  
     8    6    7 ar 
     9    7    8 1  
    10    7    9 ar 
    11   10   11 1  
    12   11   12 ar 
    13   11   14 ar 
    14   12   13 ar 
    15   13   22 ar 
    16   14   15 1  
    17   14   19 ar 
    18   15   16 1  
    19   15   17 1  
    20   17   18 1  
    21   17   20 1  
    22   19   20 1  
    23   19   22 ar 
    24   20   21 1  
    25   22   23 1  
    26   23   24 2  
    27   23   25 2  
    28   23   26 1  
    29    4   27 1  
    30    6   28 1  
    31    9   29 1  
    32   12   30 1  
    33   13   31 1  
    34   15   32 1  
    35   17   33 1  
    36   20   34 1  
    37   21   35 1  
    38   26   36 1  
    39   26   37 1  
    40   26   38 1  
@<TRIPOS>SUBSTRUCTURE
     1 MOL         1

