5t0t_ligand

Created by X-TOOL on Wed Dec 13 14:20:50 2017
 38 40  0  0  0  0  0  0  0  0999 V2000
   18.2910    2.0070   -8.7440  N 0  0  0  1  0  1
   18.8110    1.1320   -9.3210  C 0  0  0  1  0  2
   19.3590    0.1620   -9.9740  C 0  0  0  1  0  3
   20.6610    0.3780  -10.4020  C 0  0  0  2  0  3
   21.3350   -0.6230  -11.0660  C 0  0  0  1  0  3
   20.7840   -1.8660  -11.3070  C 0  0  0  2  0  3
   19.4850   -2.0890  -10.8370  C 0  0  0  1  0  3
   18.9060   -3.2750  -11.0370  F 0  0  0  1  0  1
   18.7770   -1.0910  -10.1750  C 0  0  0  2  0  3
   22.5860   -0.3120  -11.4830  O 0  0  0  1  0  2
   23.6760   -0.4600  -10.6970  C 0  0  0  1  0  3
   23.7360   -0.9230   -9.3800  C 0  0  0  2  0  3
   24.9620   -1.0600   -8.7010  C 0  0  0  2  0  3
   24.8200   -0.0850  -11.3170  C 0  0  0  1  0  3
   24.9390    0.3490  -12.7400  C 0  0  0  2  0  4
   24.6430    1.6610  -13.0550  F 0  0  0  1  0  1
   26.4320    0.0560  -12.9640  C 0  0  0  2  0  4
   27.0260    1.0100  -13.7570  F 0  0  0  1  0  1
   26.0120   -0.2310  -10.6640  C 0  0  0  1  0  3
   27.0400    0.2260  -11.6240  C 0  0  0  2  0  4
   27.0560    1.6570  -11.6270  O 0  0  0  2  0  2
   26.1300   -0.7070   -9.3380  C 0  0  0  1  0  3
   27.5660   -0.8550   -8.5680  S 0  0  0  1  0  4
   28.5200   -1.4700   -9.4890  O 0  0  0  1  0  1
   27.6110   -1.7270   -7.4310  O 0  0  0  1  0  1
   28.1490    0.6400   -8.1050  C 0  0  0  4  0  4
   21.1453    1.3296  -10.2148  H 0  0  0  1  0  1
   21.3337   -2.6354  -11.8371  H 0  0  0  1  0  1
   17.7733   -1.2863   -9.8152  H 0  0  0  1  0  1
   22.8163   -1.1831   -8.8685  H 0  0  0  1  0  1
   24.9857   -1.4399   -7.6860  H 0  0  0  1  0  1
   24.3086   -0.2916  -13.3742  H 0  0  0  1  0  1
   26.5852   -0.9528  -13.3749  H 0  0  0  1  0  1
   28.0194   -0.2526  -11.4771  H 0  0  0  1  0  1
   27.2635    1.9721  -10.7551  H 0  0  0  1  0  1
   29.1131    0.5143   -7.5906  H 0  0  0  1  0  1
   27.4300    1.1192   -7.4243  H 0  0  0  1  0  1
   28.2880    1.2711   -8.9951  H 0  0  0  1  0  1
  1  2  3  0  0  2
  2  3  1  0  0  2
  3  4  4  0  0  1
  3  9  4  0  0  1
  4  5  4  0  0  1
  5  6  4  0  0  1
  5 10  1  0  0  2
  6  7  4  0  0  1
  7  8  1  0  0  2
  7  9  4  0  0  1
 10 11  1  0  0  2
 11 12  4  0  0  1
 11 14  4  0  0  1
 12 13  4  0  0  1
 13 22  4  0  0  1
 14 15  1  0  0  1
 14 19  4  0  0  1
 15 16  1  0  0  2
 15 17  1  0  0  1
 17 18  1  0  0  2
 17 20  1  0  0  1
 19 20  1  0  0  1
 19 22  4  0  0  1
 20 21  1  0  0  2
 22 23  1  0  0  2
 23 24  2  0  0  2
 23 25  2  0  0  2
 23 26  1  0  0  2
  4 27  1  0  0  2
  6 28  1  0  0  2
  9 29  1  0  0  2
 12 30  1  0  0  2
 13 31  1  0  0  2
 15 32  1  0  0  2
 17 33  1  0  0  2
 20 34  1  0  0  2
 21 35  1  0  0  2
 26 36  1  0  0  2
 26 37  1  0  0  2
 26 38  1  0  0  2
M  END
> <MOLECULAR_FORMULA>
C17H12NO4SF3

> <MOLECULAR_WEIGHT>
383.2

> <NUM_HB_ATOMS>
5  

> <NUM_ROTOR>
3  

> <XLOGP2>
2.57 

$$$$
