### 
### Created by X-TOOL on Fri Nov 18 17:04:07 2016
### 

@<TRIPOS>MOLECULE
4g0y_ligand
   35    37     1     0     0
SMALL
GAST_HUCK


@<TRIPOS>ATOM
      1 P          25.3280   34.5700   38.3120 P.3       1 AMP         0.2008
      2 O1P        25.8450   36.0560   38.4480 O.co2     1 AMP        -0.5537
      3 O2P        25.6460   34.3310   36.7820 O.co2     1 AMP        -0.5537
      4 O3P        23.9120   34.3830   38.6580 O.co2     1 AMP        -0.5537
      5 O5'        26.3220   33.5580   39.0930 O.3       1 AMP        -0.2734
      6 C5'        27.6890   33.7670   39.3790 C.3       1 AMP         0.1072
      7 C4'        28.2630   32.4330   39.9400 C.3       1 AMP         0.1182
      8 O4'        27.8490   31.2530   39.2630 O.3       1 AMP        -0.3365
      9 C3'        29.8370   32.3810   39.9000 C.3       1 AMP         0.1149
     10 O3'        30.3250   32.7200   41.1520 O.3       1 AMP        -0.3864
     11 C2'        30.1860   30.9000   39.5070 C.3       1 AMP         0.1385
     12 O2'        31.1770   30.2640   40.2220 O.3       1 AMP        -0.3836
     13 C1'        28.7720   30.1960   39.5710 C.3       1 AMP         0.2010
     14 N9         28.5650   29.1150   38.6100 N.pl3     1 AMP        -0.1919
     15 C8         28.1400   27.7680   38.8110 C.2       1 AMP         0.1123
     16 N7         28.0770   27.0540   37.6890 N.2       1 AMP        -0.2958
     17 C5         28.4790   27.9420   36.6750 C.ar      1 AMP         0.1045
     18 C6         28.6140   27.7570   35.2710 C.ar      1 AMP         0.1298
     19 N6         28.3500   26.5670   34.6650 N.pl3     1 AMP        -0.3152
     20 N1         29.0320   28.8180   34.4950 N.ar      1 AMP        -0.2698
     21 C2         29.2890   29.9910   35.1430 C.ar      1 AMP         0.0533
     22 N3         29.2050   30.3060   36.4660 N.ar      1 AMP        -0.2714
     23 C4         28.7860   29.2270   37.2140 C.ar      1 AMP         0.1613
     24 H1         27.7976   34.5659   40.1273 H         1 AMP         0.0639
     25 H2         28.2252   34.0491   38.4609 H         1 AMP         0.0639
     26 H3         27.9324   32.3631   40.9868 H         1 AMP         0.0650
     27 H4         30.2354   33.0785   39.1485 H         1 AMP         0.0648
     28 H5         29.9976   32.1031   41.7960 H         1 AMP         0.2100
     29 H6         30.5299   30.8996   38.4621 H         1 AMP         0.0676
     30 H7         31.9909   30.7453   40.1301 H         1 AMP         0.2101
     31 H8         28.6011   29.8046   40.5847 H         1 AMP         0.0996
     32 H9         27.8905   27.3620   39.7902 H         1 AMP         0.1349
     33 H10        28.4597   26.4729   33.6452 H         1 AMP         0.1820
     34 H11        28.0405   25.7607   35.2263 H         1 AMP         0.1820
     35 H12        29.6121   30.8032   34.5019 H         1 AMP         0.0996
@<TRIPOS>BOND
     1    1    2 ar 
     2    1    3 ar 
     3    1    4 ar 
     4    1    5 1  
     5    5    6 1  
     6    6    7 1  
     7    7    8 1  
     8    7    9 1  
     9    8   13 1  
    10    9   10 1  
    11    9   11 1  
    12   11   12 1  
    13   11   13 1  
    14   13   14 1  
    15   14   15 1  
    16   14   23 1  
    17   15   16 2  
    18   16   17 1  
    19   17   18 ar 
    20   17   23 ar 
    21   18   19 1  
    22   18   20 ar 
    23   20   21 ar 
    24   21   22 ar 
    25   22   23 ar 
    26    6   24 1  
    27    6   25 1  
    28    7   26 1  
    29    9   27 1  
    30   10   28 1  
    31   11   29 1  
    32   12   30 1  
    33   13   31 1  
    34   15   32 1  
    35   19   33 1  
    36   19   34 1  
    37   21   35 1  
@<TRIPOS>SUBSTRUCTURE
     1 AMP         1

