### 
### Created by X-TOOL on Fri Nov 18 16:04:27 2016
### 

@<TRIPOS>MOLECULE
3nxq_ligand
   63    63     1     0     0
SMALL
GAST_HUCK


@<TRIPOS>ATOM
      1 CAX        -7.5060  -19.3570  -23.2410 C.2       1 RX4         0.1752
      2 CAA        -7.7620  -18.3480  -22.1590 C.3       1 RX4         0.0258
      3 OAE        -8.3630  -19.6230  -24.0750 O.2       1 RX4        -0.3972
      4 CBB        -4.1880  -18.8950  -23.0540 C.2       1 RX4         0.2049
      5 OAI        -4.0730  -19.0630  -24.2540 O.2       1 RX4        -0.3944
      6 CBF        -5.2250  -19.6980  -22.3380 C.3       1 RX4         0.1421
      7 CAR        -4.6910  -21.0680  -21.9530 C.3       1 RX4         0.0406
      8 CAZ        -5.7510  -21.7530  -21.1230 C.2       1 RX4         0.0393
      9 OAK        -6.0410  -21.2440  -20.0210 O.co2     1 RX4        -0.5688
     10 OAG        -6.3050  -22.7880  -21.5640 O.co2     1 RX4        -0.5688
     11 NAU        -6.3150  -19.9630  -23.2680 N.am      1 RX4        -0.2643
     12 CAP        -5.1940  -15.4070  -22.0910 C.ar      1 RX4        -0.0602
     13 CAN        -6.4970  -15.0460  -22.4600 C.ar      1 RX4        -0.0686
     14 CAM        -6.7680  -14.6290  -23.7650 C.ar      1 RX4        -0.0687
     15 CAO        -5.7360  -14.5760  -24.7010 C.ar      1 RX4        -0.0686
     16 CAQ        -4.4340  -14.9330  -24.3340 C.ar      1 RX4        -0.0602
     17 CBC        -4.1590  -15.3530  -23.0300 C.ar      1 RX4        -0.0393
     18 CAS        -2.7480  -15.7500  -22.6310 C.3       1 RX4         0.0205
     19 CBG        -2.4510  -17.2060  -23.0280 C.3       1 RX4         0.1158
     20 P1         -0.7630  -17.7120  -22.5710 P.3       1 RX4         0.0153
     21 O4         -0.5340  -19.0460  -23.2270 O.co2     1 RX4        -0.6174
     22 O3         -0.5880  -17.6640  -21.0700 O.co2     1 RX4        -0.6174
     23 NAW        -3.4480  -18.0280  -22.3510 N.am      1 RX4        -0.2644
     24 CAT         0.3200  -16.4960  -23.3570 C.3       1 RX4         0.0350
     25 CBD         1.6900  -16.4160  -22.6870 C.3       1 RX4         0.0618
     26 CAB         2.7360  -16.0930  -23.7530 C.3       1 RX4        -0.0438
     27 CBA         1.7230  -15.2970  -21.6820 C.2       1 RX4         0.1825
     28 OAH         0.9020  -14.3860  -21.7360 O.2       1 RX4        -0.3966
     29 N           2.7050  -15.3610  -20.7760 N.am      1 RX4        -0.2656
     30 CA          2.9270  -14.3460  -19.7560 C.3       1 RX4         0.1278
     31 CB          4.0510  -14.7870  -18.8150 C.3       1 RX4        -0.0244
     32 C           3.3370  -13.0720  -20.4370 C.2       1 RX4         0.1989
     33 O           3.9910  -13.1240  -21.4730 O.2       1 RX4        -0.3947
     34 NAD         2.9640  -11.9270  -19.8890 N.am      1 RX4        -0.2990
     35 H1         -6.8699  -18.2597  -21.5215 H         1 RX4         0.0467
     36 H2         -8.6177  -18.6734  -21.5492 H         1 RX4         0.0467
     37 H3         -7.9859  -17.3717  -22.6136 H         1 RX4         0.0467
     38 H4         -5.5789  -19.1541  -21.4498 H         1 RX4         0.0819
     39 H5         -3.7669  -20.9594  -21.3662 H         1 RX4         0.0478
     40 H6         -4.4836  -21.6579  -22.8580 H         1 RX4         0.0478
     41 H7         -6.1605  -20.6490  -23.9790 H         1 RX4         0.1884
     42 H8         -4.9882  -15.7285  -21.0764 H         1 RX4         0.0557
     43 H9         -7.2971  -15.0906  -21.7300 H         1 RX4         0.0599
     44 H10        -7.7757  -14.3479  -24.0488 H         1 RX4         0.0559
     45 H11        -5.9431  -14.2572  -25.7162 H         1 RX4         0.0599
     46 H12        -3.6348  -14.8835  -25.0647 H         1 RX4         0.0557
     47 H13        -2.6395  -15.6452  -21.5414 H         1 RX4         0.0465
     48 H14        -2.0312  -15.0862  -23.1364 H         1 RX4         0.0465
     49 H15        -2.5627  -17.3158  -24.1168 H         1 RX4         0.0788
     50 H16        -3.5787  -17.9442  -21.3631 H         1 RX4         0.1872
     51 H17        -0.1591  -15.5075  -23.3001 H         1 RX4         0.0493
     52 H18         0.4586  -16.7761  -24.4117 H         1 RX4         0.0493
     53 H19         1.9219  -17.3727  -22.1961 H         1 RX4         0.0551
     54 H20         3.7296  -16.0320  -23.2851 H         1 RX4         0.0257
     55 H21         2.4932  -15.1295  -24.2249 H         1 RX4         0.0257
     56 H22         2.7383  -16.8850  -24.5164 H         1 RX4         0.0257
     57 H23         3.3202  -16.1490  -20.8006 H         1 RX4         0.1883
     58 H24         2.0028  -14.1861  -19.1814 H         1 RX4         0.0797
     59 H25         4.2115  -14.0147  -18.0484 H         1 RX4         0.0277
     60 H26         4.9770  -14.9295  -19.3914 H         1 RX4         0.0277
     61 H27         3.7722  -15.7336  -18.3290 H         1 RX4         0.0277
     62 H28         3.2206  -11.0606  -20.3174 H         1 RX4         0.1815
     63 H29         2.4254  -11.9280  -19.0464 H         1 RX4         0.1815
@<TRIPOS>BOND
     1    1    2 1  
     2    1    3 2  
     3   11    1 am 
     4    4    5 2  
     5    4    6 1  
     6   23    4 am 
     7    6    7 1  
     8    6   11 1  
     9    7    8 1  
    10    8    9 ar 
    11    8   10 ar 
    12   12   13 ar 
    13   17   12 ar 
    14   13   14 ar 
    15   15   14 ar 
    16   16   15 ar 
    17   17   16 ar 
    18   18   17 1  
    19   19   18 1  
    20   19   20 1  
    21   19   23 1  
    22   20   21 ar 
    23   20   22 ar 
    24   20   24 1  
    25   24   25 1  
    26   25   26 1  
    27   25   27 1  
    28   27   28 2  
    29   27   29 am 
    30   29   30 1  
    31   30   31 1  
    32   30   32 1  
    33   32   33 2  
    34   32   34 am 
    35    2   35 1  
    36    2   36 1  
    37    2   37 1  
    38    6   38 1  
    39    7   39 1  
    40    7   40 1  
    41   11   41 1  
    42   12   42 1  
    43   13   43 1  
    44   14   44 1  
    45   15   45 1  
    46   16   46 1  
    47   18   47 1  
    48   18   48 1  
    49   19   49 1  
    50   23   50 1  
    51   24   51 1  
    52   24   52 1  
    53   25   53 1  
    54   26   54 1  
    55   26   55 1  
    56   26   56 1  
    57   29   57 1  
    58   30   58 1  
    59   31   59 1  
    60   31   60 1  
    61   31   61 1  
    62   34   62 1  
    63   34   63 1  
@<TRIPOS>SUBSTRUCTURE
     1 RX4         1

