### 
### Created by X-TOOL on Fri Nov 18 12:30:52 2016
### 

@<TRIPOS>MOLECULE
1qbq_ligand
   45    44     1     0     0
SMALL
GAST_HUCK


@<TRIPOS>ATOM
      1 P         197.7660  126.0930   32.6320 P.3       1 HFP         0.0925
      2 O1P       198.9400  126.9520   32.6260 O.co2     1 HFP        -0.5596
      3 O2P       198.0850  124.6460   33.1350 O.co2     1 HFP        -0.5596
      4 O3P       196.6260  126.6790   33.4890 O.co2     1 HFP        -0.5596
      5 C1        197.1530  125.9630   30.9050 C.3       1 HFP         0.1324
      6 O1        197.3570  127.2210   30.2330 O.3       1 HFP        -0.3700
      7 C2        195.6740  125.6470   30.9190 C.2       1 HFP        -0.0644
      8 C3        195.1050  124.7900   30.0580 C.2       1 HFP        -0.0791
      9 C4        195.9350  124.0970   29.0060 C.3       1 HFP        -0.0401
     10 C5        193.6120  124.5120   30.1220 C.3       1 HFP        -0.0253
     11 C6        193.1310  124.2850   31.5860 C.3       1 HFP        -0.0388
     12 C7        191.9070  123.3810   31.6060 C.2       1 HFP        -0.1070
     13 C8        191.0900  123.3030   32.6730 C.2       1 HFP        -0.0827
     14 C9        191.3850  124.1140   33.9120 C.3       1 HFP        -0.0402
     15 C10       189.8710  122.3880   32.6710 C.3       1 HFP        -0.0254
     16 C11       188.7720  122.9300   31.7860 C.3       1 HFP        -0.0388
     17 C12       187.5110  122.0950   31.9720 C.2       1 HFP        -0.1074
     18 C13       186.3380  122.3820   31.3550 C.2       1 HFP        -0.0870
     19 C14       186.2070  123.5610   30.4170 C.3       1 HFP        -0.0406
     20 C15       185.1120  121.5150   31.5740 C.3       1 HFP        -0.0406
     21 H1        197.6981  125.1665   30.3772 H         1 HFP         0.0862
     22 H2        198.2839  127.4293   30.2278 H         1 HFP         0.2138
     23 H3        195.0437  126.1364   31.6601 H         1 HFP         0.0281
     24 H4        195.2899  123.4403   28.4039 H         1 HFP         0.0375
     25 H5        196.7172  123.4962   29.4930 H         1 HFP         0.0375
     26 H6        196.4031  124.8492   28.3540 H         1 HFP         0.0375
     27 H7        193.3913  123.6112   29.5305 H         1 HFP         0.0425
     28 H8        193.0709  125.3707   29.6980 H         1 HFP         0.0425
     29 H9        192.8735  125.2543   32.0377 H         1 HFP         0.0361
     30 H10       193.9393  123.8140   32.1646 H         1 HFP         0.0361
     31 H11       191.6846  122.7769   30.7276 H         1 HFP         0.0244
     32 H12       190.6123  123.9193   34.6703 H         1 HFP         0.0375
     33 H13       191.3877  125.1842   33.6577 H         1 HFP         0.0375
     34 H14       192.3699  123.8293   34.3107 H         1 HFP         0.0375
     35 H15       189.4901  122.2980   33.6990 H         1 HFP         0.0425
     36 H16       190.1697  121.3956   32.3024 H         1 HFP         0.0425
     37 H17       189.0912  122.8825   30.7344 H         1 HFP         0.0361
     38 H18       188.5633  123.9749   32.0591 H         1 HFP         0.0361
     39 H19       187.5537  121.2285   32.6302 H         1 HFP         0.0244
     40 H20       185.1784  123.6092   30.0301 H         1 HFP         0.0375
     41 H21       186.9089  123.4422   29.5784 H         1 HFP         0.0375
     42 H22       186.4383  124.4892   30.9601 H         1 HFP         0.0375
     43 H23       185.3573  120.7035   32.2749 H         1 HFP         0.0375
     44 H24       184.7904  121.0854   30.6138 H         1 HFP         0.0375
     45 H25       184.2996  122.1275   31.9922 H         1 HFP         0.0375
@<TRIPOS>BOND
     1    5    1 1  
     2    1    4 ar 
     3    1    3 ar 
     4    1    2 ar 
     5    5    7 1  
     6    5    6 1  
     7    7    8 2  
     8    8   10 1  
     9    8    9 1  
    10   10   11 1  
    11   11   12 1  
    12   12   13 2  
    13   13   15 1  
    14   13   14 1  
    15   15   16 1  
    16   16   17 1  
    17   17   18 2  
    18   18   20 1  
    19   18   19 1  
    20    5   21 1  
    21    6   22 1  
    22    7   23 1  
    23    9   24 1  
    24    9   25 1  
    25    9   26 1  
    26   10   27 1  
    27   10   28 1  
    28   11   29 1  
    29   11   30 1  
    30   12   31 1  
    31   14   32 1  
    32   14   33 1  
    33   14   34 1  
    34   15   35 1  
    35   15   36 1  
    36   16   37 1  
    37   16   38 1  
    38   17   39 1  
    39   19   40 1  
    40   19   41 1  
    41   19   42 1  
    42   20   43 1  
    43   20   44 1  
    44   20   45 1  
@<TRIPOS>SUBSTRUCTURE
     1 HFP         1

