### 
### Created by X-TOOL on Wed Dec 13 14:17:31 2017
### 

@<TRIPOS>MOLECULE
5ant_ligand
   43    45     1     0     0
SMALL
GAST_HUCK


@<TRIPOS>ATOM
      1 C1         -8.4230    9.8500  -14.4500 C.3       1 RJE         0.0144
      2 N2         -7.7040   10.7840  -15.3090 N.pl3     1 RJE        -0.3155
      3 C3         -7.8070   10.7810  -16.6920 C.ar      1 RJE         0.1243
      4 N4         -8.5390    9.8720  -17.3180 N.ar      1 RJE        -0.2648
      5 C5         -8.6600    9.8530  -18.6430 C.ar      1 RJE         0.1952
      6 O6         -9.4520    8.8640  -19.1650 O.3       1 RJE        -0.2908
      7 C7         -9.5250    8.9230  -20.5900 C.3       1 RJE         0.0986
      8 C8        -10.9970    9.1550  -20.9500 C.3       1 RJE         0.0756
      9 O9        -11.1730   10.4950  -21.3940 O.3       1 RJE        -0.3803
     10 C10       -11.1760   10.7400  -22.8130 C.3       1 RJE         0.0366
     11 N11        -8.0320   10.7420  -19.4010 N.ar      1 RJE        -0.2636
     12 C12        -7.2810   11.6940  -18.8500 C.ar      1 RJE         0.1590
     13 N13        -6.5100   12.7180  -19.3480 N.am      1 RJE        -0.1791
     14 C14        -6.2100   13.0040  -20.7590 C.3       1 RJE         0.0933
     15 C15        -7.2320   13.6630  -21.6310 C.ar      1 RJE        -0.0144
     16 C16        -8.5270   13.1770  -21.7320 C.ar      1 RJE        -0.0578
     17 C17        -9.4290   13.8060  -22.5810 C.ar      1 RJE        -0.0685
     18 C18        -9.0280   14.9020  -23.3230 C.ar      1 RJE        -0.0687
     19 C19        -7.7340   15.3680  -23.2260 C.ar      1 RJE        -0.0685
     20 C20        -6.8270   14.7470  -22.3840 C.ar      1 RJE        -0.0578
     21 C21        -5.9310   13.3590  -18.3230 C.2       1 RJE         0.3142
     22 O22        -5.1600   14.3070  -18.4310 O.2       1 RJE        -0.3948
     23 N23        -6.3230   12.8110  -17.1590 N.am      1 RJE        -0.2201
     24 C25        -7.1650   11.7470  -17.4590 C.ar      1 RJE         0.1470
     25 H1         -8.1754   10.0545  -13.3979 H         1 RJE         0.0480
     26 H2         -8.1301    8.8201  -14.7020 H         1 RJE         0.0480
     27 H3         -9.5057    9.9710  -14.6021 H         1 RJE         0.0480
     28 H4         -7.0886   11.4811  -14.8661 H         1 RJE         0.1787
     29 H5         -9.1733    7.9766  -21.0265 H         1 RJE         0.0644
     30 H6         -8.9081    9.7522  -20.9666 H         1 RJE         0.0644
     31 H7        -11.6233    8.9777  -20.0633 H         1 RJE         0.0587
     32 H8        -11.2917    8.4618  -21.7517 H         1 RJE         0.0587
     33 H9        -11.3208   11.8144  -22.9993 H         1 RJE         0.0524
     34 H10       -11.9942   10.1732  -23.2813 H         1 RJE         0.0524
     35 H11       -10.2153   10.4197  -23.2425 H         1 RJE         0.0524
     36 H12        -5.9655   12.0412  -21.2314 H         1 RJE         0.0762
     37 H13        -5.3218   13.6528  -20.7678 H         1 RJE         0.0762
     38 H14        -8.8330   12.3131  -21.1530 H         1 RJE         0.0557
     39 H15       -10.4455   13.4383  -22.6617 H         1 RJE         0.0599
     40 H16        -9.7326   15.3958  -23.9823 H         1 RJE         0.0559
     41 H17        -7.4249   16.2257  -23.8124 H         1 RJE         0.0599
     42 H18        -5.8074   15.1089  -22.3166 H         1 RJE         0.0557
     43 H19        -6.0569   13.1141  -16.2440 H         1 RJE         0.2209
@<TRIPOS>BOND
     1    1    2 1  
     2    2    3 1  
     3    3    4 ar 
     4    3   24 ar 
     5    4    5 ar 
     6    5    6 1  
     7    5   11 ar 
     8    6    7 1  
     9    7    8 1  
    10    8    9 1  
    11    9   10 1  
    12   11   12 ar 
    13   12   13 1  
    14   12   24 ar 
    15   13   14 1  
    16   13   21 am 
    17   14   15 1  
    18   15   16 ar 
    19   15   20 ar 
    20   16   17 ar 
    21   17   18 ar 
    22   18   19 ar 
    23   19   20 ar 
    24   21   22 2  
    25   21   23 am 
    26   23   24 1  
    27    1   25 1  
    28    1   26 1  
    29    1   27 1  
    30    2   28 1  
    31    7   29 1  
    32    7   30 1  
    33    8   31 1  
    34    8   32 1  
    35   10   33 1  
    36   10   34 1  
    37   10   35 1  
    38   14   36 1  
    39   14   37 1  
    40   16   38 1  
    41   17   39 1  
    42   18   40 1  
    43   19   41 1  
    44   20   42 1  
    45   23   43 1  
@<TRIPOS>SUBSTRUCTURE
     1 RJE         1

