### 
### Created by X-TOOL on Fri Nov 18 13:00:24 2016
### 

@<TRIPOS>MOLECULE
1jvu_ligand
   33    34     1     0     0
SMALL
GAST_HUCK


@<TRIPOS>ATOM
      1 N1         36.2160    2.1250   24.7180 N.am      1 C2P        -0.1464
      2 C2         35.0120    2.3330   25.4030 C.2       1 C2P         0.3488
      3 N3         34.3660    3.5250   25.2700 N.am      1 C2P        -0.1924
      4 C4         34.8690    4.4710   24.4650 C.2       1 C2P         0.0853
      5 C5         36.0820    4.2620   23.7200 C.2       1 C2P         0.0019
      6 C6         36.7150    3.0850   23.8760 C.2       1 C2P         0.0739
      7 O2         34.5620    1.4140   26.1150 O.2       1 C2P        -0.3777
      8 N4         34.2180    5.6240   24.3810 N.2       1 C2P        -0.4291
      9 C1'        36.9380    0.8650   24.9360 C.3       1 C2P         0.2156
     10 C2'        36.8240   -0.1360   23.7770 C.3       1 C2P         0.1736
     11 O2'        36.7810   -1.3880   24.4620 O.3       1 C2P        -0.2645
     12 C3'        38.0610    0.2430   22.9700 C.3       1 C2P         0.1194
     13 C4'        39.0810    0.4720   24.0680 C.3       1 C2P         0.1140
     14 O4'        38.3160    1.1710   25.0910 O.3       1 C2P        -0.3354
     15 O3'        38.4990   -0.7380   22.0650 O.3       1 C2P        -0.3860
     16 C5'        40.2670    1.2940   23.6540 C.3       1 C2P         0.0730
     17 O5'        39.8320    2.4050   22.8510 O.3       1 C2P        -0.3924
     18 P          36.5890   -2.7950   23.6530 P.3       1 C2P         0.2015
     19 O1P        35.1020   -2.8510   23.4440 O.co2     1 C2P        -0.5537
     20 O2P        37.2900   -3.8970   24.3790 O.co2     1 C2P        -0.5537
     21 O3P        37.2640   -2.6330   22.2230 O.co2     1 C2P        -0.5537
     22 H1         33.5179    3.6938   25.7722 H         1 C2P         0.2412
     23 H2         36.4738    5.0291   23.0536 H         1 C2P         0.0330
     24 H3         37.6353    2.8925   23.3265 H         1 C2P         0.1288
     25 H4         34.5677    6.3580   23.7852 H         1 C2P         0.0340
     26 H5         36.5514    0.3926   25.8511 H         1 C2P         0.1017
     27 H6         35.9179   -0.0125   23.1657 H         1 C2P         0.0733
     28 H7         37.8758    1.1705   22.4084 H         1 C2P         0.0651
     29 H8         39.4435   -0.4949   24.4470 H         1 C2P         0.0647
     30 H9         37.8420   -0.8603   21.3898 H         1 C2P         0.2100
     31 H10        40.9584    0.6693   23.0695 H         1 C2P         0.0584
     32 H11        40.7815    1.6704   24.5504 H         1 C2P         0.0584
     33 H12        40.5861    2.9215   22.5919 H         1 C2P         0.2095
@<TRIPOS>BOND
     1    1    2 am 
     2    1    6 1  
     3    1    9 1  
     4    2    3 am 
     5    2    7 2  
     6    3    4 1  
     7    4    5 1  
     8    4    8 2  
     9    5    6 2  
    10    9   10 1  
    11    9   14 1  
    12   10   11 1  
    13   10   12 1  
    14   11   18 1  
    15   12   13 1  
    16   12   15 1  
    17   13   14 1  
    18   13   16 1  
    19   16   17 1  
    20   18   19 ar 
    21   18   20 ar 
    22   18   21 ar 
    23    3   22 1  
    24    5   23 1  
    25    6   24 1  
    26    8   25 1  
    27    9   26 1  
    28   10   27 1  
    29   12   28 1  
    30   13   29 1  
    31   15   30 1  
    32   16   31 1  
    33   16   32 1  
    34   17   33 1  
@<TRIPOS>SUBSTRUCTURE
     1 C2P         1

