### 
### Created by X-TOOL on Fri Nov 18 16:47:13 2016
### 

@<TRIPOS>MOLECULE
4aq4_ligand
   17    16     1     0     0
SMALL
GAST_HUCK


@<TRIPOS>ATOM
      1 O1         44.8840   26.3180  179.1960 O.3       1 G3P        -0.3924
      2 C1         44.4610   25.0030  178.9720 C.3       1 G3P         0.0726
      3 C2         42.9800   24.7700  178.8740 C.3       1 G3P         0.1058
      4 O2         42.4730   25.4150  177.7500 O.3       1 G3P        -0.3869
      5 C3         42.6810   23.3030  178.7210 C.3       1 G3P         0.1064
      6 O1P        43.3010   22.6640  177.6380 O.3       1 G3P        -0.2734
      7 O4P        42.6290   20.3520  178.2570 O.co2     1 G3P        -0.5537
      8 O2P        43.7830   20.7740  176.1200 O.co2     1 G3P        -0.5537
      9 O3P        41.4050   21.5210  176.4430 O.co2     1 G3P        -0.5537
     10 P          42.7500   21.3120  177.1010 P.3       1 G3P         0.2008
     11 H1         44.5845   26.8714  178.4843 H         1 G3P         0.2095
     12 H2         44.8396   24.3869  179.8009 H         1 G3P         0.0584
     13 H3         44.9131   24.6653  178.0278 H         1 G3P         0.0584
     14 H4         42.4913   25.1565  179.7805 H         1 G3P         0.0643
     15 H5         42.6403   26.3475  177.8190 H         1 G3P         0.2100
     16 H6         41.5933   23.1908  178.6014 H         1 G3P         0.0639
     17 H7         43.0030   22.7950  179.6420 H         1 G3P         0.0639
@<TRIPOS>BOND
     1    1    2 1  
     2    2    3 1  
     3    3    4 1  
     4    3    5 1  
     5    5    6 1  
     6    6   10 1  
     7   10    7 ar 
     8   10    8 ar 
     9   10    9 ar 
    10    1   11 1  
    11    2   12 1  
    12    2   13 1  
    13    3   14 1  
    14    4   15 1  
    15    5   16 1  
    16    5   17 1  
@<TRIPOS>SUBSTRUCTURE
     1 G3P         1

