### 
### Created by X-TOOL on Fri Nov 18 15:36:09 2016
### 

@<TRIPOS>MOLECULE
3el1_ligand
  104   106     1     0     0
SMALL
GAST_HUCK


@<TRIPOS>ATOM
      1 CAA        21.4750   24.0530    8.9880 C.3       1 DR7         0.0663
      2 OBI        21.1020   25.3620    9.4340 O.3       1 DR7        -0.2672
      3 CBK        21.6540   25.9040   10.6610 C.2       1 DR7         0.3216
      4 OAI        21.8660   25.1620   11.6120 O.2       1 DR7        -0.3774
      5 N          21.8790   27.2110   10.5900 N.am      1 DR7        -0.2407
      6 CA         22.4320   28.1380   11.5540 C.3       1 DR7         0.1375
      7 CB         23.9300   28.2660   11.7700 C.3       1 DR7         0.0025
      8 CAE        24.4310   29.2030   10.6690 C.3       1 DR7        -0.0558
      9 CG2        24.6550   26.9290   11.6700 C.3       1 DR7        -0.0558
     10 CG1        24.2500   28.9120   13.1160 C.3       1 DR7        -0.0558
     11 C          21.4950   29.1090   12.2540 C.2       1 DR7         0.2026
     12 O          21.3450   30.2100   11.7620 O.2       1 DR7        -0.3945
     13 NBG        20.8200   28.6540   13.3250 N.am      1 DR7        -0.2773
     14 CBT        19.6970   29.3480   13.9410 C.3       1 DR7         0.0823
     15 CBA        18.4470   28.4750   13.8000 C.3       1 DR7         0.0066
     16 CBO        18.1730   28.1730   12.3410 C.ar      1 DR7        -0.0408
     17 CAT        18.5630   26.9530   11.7940 C.ar      1 DR7        -0.0603
     18 CAP        18.3150   26.6700   10.4520 C.ar      1 DR7        -0.0686
     19 CAN        17.6650   27.6040    9.6530 C.ar      1 DR7        -0.0687
     20 CAQ        17.2720   28.8230   10.1950 C.ar      1 DR7        -0.0686
     21 CAU        17.5190   29.1060   11.5380 C.ar      1 DR7        -0.0603
     22 CBS        19.9610   29.6870   15.4110 C.3       1 DR7         0.1201
     23 OAM        20.2070   28.4870   16.1560 O.3       1 DR7        -0.3840
     24 CBC        21.1580   30.5960   15.6350 C.3       1 DR7         0.0233
     25 NBW        20.9710   31.9840   15.1870 N.4       1 DR7         0.3820
     26 NBH        19.9490   32.6100   15.9460 N.am      1 DR7        -0.2493
     27 CBN        18.9190   33.2460   15.3720 C.2       1 DR7         0.2392
     28 OAL        18.7720   33.3410   14.1660 O.2       1 DR7        -0.3898
     29 CBV        17.9580   33.9140   16.3200 C.3       1 DR7         0.1419
     30 CBY        16.5160   33.9850   15.8090 C.3       1 DR7         0.0027
     31 CAH        16.3870   34.8830   14.5860 C.3       1 DR7        -0.0558
     32 CAF        16.0200   32.5850   15.4520 C.3       1 DR7        -0.0558
     33 CAG        15.6310   34.5710   16.9140 C.3       1 DR7        -0.0558
     34 NBF        18.4860   35.2380   16.5560 N.am      1 DR7        -0.2405
     35 CBL        18.5690   35.8170   17.7480 C.2       1 DR7         0.3216
     36 OAJ        18.1830   35.3140   18.8020 O.2       1 DR7        -0.3774
     37 OBJ        19.1720   37.1370   17.7390 O.3       1 DR7        -0.2672
     38 CAB        19.6090   37.7430   18.9590 C.3       1 DR7         0.0663
     39 CBB        22.2880   32.6520   15.3510 C.3       1 DR7         0.0280
     40 CBP        22.2310   34.1030   15.7800 C.ar      1 DR7         0.0049
     41 CAW        22.1840   35.1100   14.8210 C.ar      1 DR7        -0.0520
     42 CAY        22.1480   36.4470   15.2070 C.ar      1 DR7        -0.0565
     43 CAX        22.2600   34.4410   17.1290 C.ar      1 DR7        -0.0520
     44 CAZ        22.2210   35.7770   17.5170 C.ar      1 DR7        -0.0565
     45 CBQ        22.1610   36.7870   16.5570 C.ar      1 DR7        -0.0068
     46 CBR        22.1340   38.2140   16.9910 C.ar      1 DR7         0.0481
     47 CAV        21.3560   39.1580   16.3270 C.ar      1 DR7        -0.0287
     48 CAR        21.3680   40.4780   16.7660 C.ar      1 DR7        -0.0433
     49 CAO        22.1510   40.8260   17.8610 C.ar      1 DR7        -0.0355
     50 CAS        22.9130   39.8500   18.4980 C.ar      1 DR7         0.0086
     51 NBD        22.8900   38.5860   18.0540 N.ar      1 DR7        -0.2940
     52 H1         20.9546   23.8244    8.0462 H         1 DR7         0.0575
     53 H2         21.1946   23.3119    9.7510 H         1 DR7         0.0575
     54 H3         22.5621   24.0174    8.8242 H         1 DR7         0.0575
     55 H4         21.6213   27.6273    9.7181 H         1 DR7         0.1899
     56 H5         22.3450   27.4003   12.3653 H         1 DR7         0.0804
     57 H6         25.5180   29.3387   10.7696 H         1 DR7         0.0237
     58 H7         23.9298   30.1778   10.7609 H         1 DR7         0.0237
     59 H8         24.2056   28.7661    9.6850 H         1 DR7         0.0237
     60 H9         24.2942   26.2561   12.4619 H         1 DR7         0.0237
     61 H10        25.7368   27.0886   11.7893 H         1 DR7         0.0237
     62 H11        24.4572   26.4773   10.6867 H         1 DR7         0.0237
     63 H12        23.7286   29.8776   13.1925 H         1 DR7         0.0237
     64 H13        25.3350   29.0739   13.1963 H         1 DR7         0.0237
     65 H14        23.9168   28.2500   13.9289 H         1 DR7         0.0237
     66 H15        21.1076   27.7833   13.7240 H         1 DR7         0.1857
     67 H16        19.5317   30.2910   13.3994 H         1 DR7         0.0606
     68 H17        17.5841   29.0063   14.2279 H         1 DR7         0.0449
     69 H18        18.6019   27.5306   14.3423 H         1 DR7         0.0449
     70 H19        19.0625   26.2190   12.4159 H         1 DR7         0.0557
     71 H20        18.6289   25.7216   10.0311 H         1 DR7         0.0599
     72 H21        17.4652   27.3827    8.6108 H         1 DR7         0.0559
     73 H22        16.7721   29.5555    9.5716 H         1 DR7         0.0599
     74 H23        17.2018   30.0535   11.9583 H         1 DR7         0.0557
     75 H24        19.0648   30.1856   15.8087 H         1 DR7         0.0672
     76 H25        20.3694   28.7080   17.0656 H         1 DR7         0.2101
     77 H26        22.0152   30.1733   15.0905 H         1 DR7         0.0849
     78 H27        21.3793   30.6112   16.7124 H         1 DR7         0.0849
     79 H28        20.7058   31.9984   14.2146 H         1 DR7         0.2323
     80 H29        19.9991   32.5754   16.9441 H         1 DR7         0.2384
     81 H30        17.9499   33.3519   17.2655 H         1 DR7         0.0806
     82 H31        15.3381   34.9036   14.2553 H         1 DR7         0.0237
     83 H32        17.0194   34.4917   13.7754 H         1 DR7         0.0237
     84 H33        16.7102   35.9023   14.8438 H         1 DR7         0.0237
     85 H34        16.1097   31.9292   16.3305 H         1 DR7         0.0237
     86 H35        16.6266   32.1799   14.6286 H         1 DR7         0.0237
     87 H36        14.9665   32.6377   15.1399 H         1 DR7         0.0237
     88 H37        15.9867   35.5793   17.1725 H         1 DR7         0.0237
     89 H38        15.6796   33.9258   17.8036 H         1 DR7         0.0237
     90 H39        14.5914   34.6287   16.5592 H         1 DR7         0.0237
     91 H40        18.8123   35.7554   15.7649 H         1 DR7         0.1899
     92 H41        20.0346   38.7343   18.7441 H         1 DR7         0.0575
     93 H42        20.3752   37.1092   19.4294 H         1 DR7         0.0575
     94 H43        18.7533   37.8516   19.6416 H         1 DR7         0.0575
     95 H44        22.8155   32.6036   14.3870 H         1 DR7         0.0995
     96 H45        22.8585   32.0960   16.1095 H         1 DR7         0.0995
     97 H46        22.1754   34.8522   13.7681 H         1 DR7         0.0567
     98 H47        22.1097   37.2259   14.4540 H         1 DR7         0.0625
     99 H48        22.3131   33.6614   17.8804 H         1 DR7         0.0567
    100 H49        22.2373   36.0338   18.5700 H         1 DR7         0.0625
    101 H50        20.7479   38.8680   15.4778 H         1 DR7         0.0706
    102 H51        20.7723   41.2284   16.2590 H         1 DR7         0.0732
    103 H52        22.1681   41.8500   18.2163 H         1 DR7         0.0697
    104 H53        23.5249   40.1129   19.3533 H         1 DR7         0.0823
@<TRIPOS>BOND
     1    1    2 1  
     2    2    3 1  
     3    3    4 2  
     4    3    5 am 
     5    5    6 1  
     6    6    7 1  
     7    6   11 1  
     8    7    8 1  
     9    7    9 1  
    10    7   10 1  
    11   11   12 2  
    12   11   13 am 
    13   13   14 1  
    14   14   15 1  
    15   14   22 1  
    16   15   16 1  
    17   16   17 ar 
    18   16   21 ar 
    19   17   18 ar 
    20   18   19 ar 
    21   19   20 ar 
    22   20   21 ar 
    23   22   23 1  
    24   22   24 1  
    25   24   25 1  
    26   25   26 1  
    27   25   39 1  
    28   26   27 am 
    29   27   28 2  
    30   27   29 1  
    31   29   30 1  
    32   29   34 1  
    33   30   31 1  
    34   30   32 1  
    35   30   33 1  
    36   34   35 am 
    37   35   36 2  
    38   35   37 1  
    39   37   38 1  
    40   39   40 1  
    41   40   41 ar 
    42   40   43 ar 
    43   41   42 ar 
    44   42   45 ar 
    45   43   44 ar 
    46   44   45 ar 
    47   45   46 1  
    48   46   47 ar 
    49   46   51 ar 
    50   47   48 ar 
    51   48   49 ar 
    52   49   50 ar 
    53   50   51 ar 
    54    1   52 1  
    55    1   53 1  
    56    1   54 1  
    57    5   55 1  
    58    6   56 1  
    59    8   57 1  
    60    8   58 1  
    61    8   59 1  
    62    9   60 1  
    63    9   61 1  
    64    9   62 1  
    65   10   63 1  
    66   10   64 1  
    67   10   65 1  
    68   13   66 1  
    69   14   67 1  
    70   15   68 1  
    71   15   69 1  
    72   17   70 1  
    73   18   71 1  
    74   19   72 1  
    75   20   73 1  
    76   21   74 1  
    77   22   75 1  
    78   23   76 1  
    79   24   77 1  
    80   24   78 1  
    81   25   79 1  
    82   26   80 1  
    83   29   81 1  
    84   31   82 1  
    85   31   83 1  
    86   31   84 1  
    87   32   85 1  
    88   32   86 1  
    89   32   87 1  
    90   33   88 1  
    91   33   89 1  
    92   33   90 1  
    93   34   91 1  
    94   38   92 1  
    95   38   93 1  
    96   38   94 1  
    97   39   95 1  
    98   39   96 1  
    99   41   97 1  
   100   42   98 1  
   101   43   99 1  
   102   44  100 1  
   103   47  101 1  
   104   48  102 1  
   105   49  103 1  
   106   50  104 1  
@<TRIPOS>SUBSTRUCTURE
     1 DR7         1

