### 
### Created by X-TOOL on Fri Nov 18 15:07:07 2016
### 

@<TRIPOS>MOLECULE
3bbb_ligand
   65    70     1     0     0
SMALL
GAST_HUCK


@<TRIPOS>ATOM
      1 O5'       -18.7440  -22.2990   44.5820 O.3       1 DA         -0.3924
      2 C5'       -18.8290  -22.5660   43.1850 C.3       1 DA          0.0733
      3 C4'       -19.1390  -21.3090   42.3880 C.3       1 DA          0.1163
      4 O4'       -19.5030  -21.6670   41.0320 O.3       1 DA         -0.3389
      5 C3'       -20.2920  -20.4510   42.9170 C.3       1 DA          0.1278
      6 O3'       -19.7900  -19.2710   43.5700 O.3       1 DA         -0.2479
      7 C2'       -21.1310  -20.1370   41.6730 C.3       1 DA          0.0368
      8 C1'       -20.2460  -20.5870   40.5110 C.3       1 DA          0.1755
      9 N9        -20.9160  -21.0040   39.2690 N.pl3     1 DA         -0.1945
     10 C8        -20.3780  -21.8170   38.3080 C.2       1 DA          0.1122
     11 N7        -21.1610  -22.0330   37.2770 N.2       1 DA         -0.2958
     12 C5        -22.3000  -21.3090   37.5760 C.ar      1 DA          0.1045
     13 C6        -23.5130  -21.1260   36.8790 C.ar      1 DA          0.1298
     14 N6        -23.7690  -21.6860   35.6960 N.pl3     1 DA         -0.3152
     15 N1        -24.4560  -20.3430   37.4420 N.ar      1 DA         -0.2698
     16 C2        -24.1950  -19.7800   38.6290 C.ar      1 DA          0.0533
     17 N3        -23.0960  -19.8780   39.3800 N.ar      1 DA         -0.2714
     18 C4        -22.1710  -20.6650   38.7970 C.ar      1 DA          0.1612
     19 P         -20.3250  -18.8430   45.0240 P.3       1 DA          0.2556
     20 OP1       -20.8960  -17.4780   44.9120 O.co2     1 DA         -0.6177
     21 OP2       -19.2380  -19.0860   46.0090 O.co2     1 DA         -0.6177
     22 O5'       -21.5300  -19.8660   45.3000 O.3       1 DA         -0.2514
     23 C5'       -22.8800  -19.3990   45.3830 C.3       1 DA          0.1123
     24 C4'       -23.8970  -20.5340   45.3850 C.3       1 DA          0.1164
     25 O4'       -23.8750  -21.2280   44.1070 O.3       1 DA         -0.3368
     26 C3'       -23.6800  -21.6190   46.4360 C.3       1 DA          0.0891
     27 O3'       -24.9320  -22.0770   46.9420 O.3       1 DA         -0.3889
     28 C2'       -22.9530  -22.7050   45.6530 C.3       1 DA          0.0337
     29 C1'       -23.6810  -22.6160   44.3160 C.3       1 DA          0.1957
     30 N9        -22.9750  -23.1600   43.1560 N.pl3     1 DA         -0.0981
     31 C8        -21.6650  -23.5800   43.0770 C.2       1 DA          0.1854
     32 N7        -21.3290  -24.0100   41.8910 N.2       1 DA         -0.1929
     33 C5        -22.4840  -23.8660   41.1340 C.2       1 DA          0.2558
     34 C6        -22.7280  -24.1670   39.7700 C.2       1 DA          0.2628
     35 O6        -21.9380  -24.6400   38.9420 O.2       1 DA         -0.3594
     36 N1        -24.0390  -23.8700   39.3950 N.am      1 DA         -0.2478
     37 C2        -24.9950  -23.3410   40.2350 C.cat     1 DA          0.2041
     38 N2        -26.2020  -23.1240   39.6960 N.pl3     1 DA         -0.3327
     39 N3        -24.7780  -23.0570   41.5160 N.pl3     1 DA         -0.1901
     40 C4        -23.5060  -23.3420   41.8970 C.2       1 DA          0.3267
     41 H1        -18.5498  -23.1049   45.0460 H         1 DA          0.2095
     42 H2        -19.6265  -23.3035   43.0113 H         1 DA          0.0584
     43 H3        -17.8682  -22.9772   42.8419 H         1 DA          0.0584
     44 H4        -18.2282  -20.6924   42.3738 H         1 DA          0.0650
     45 H5        -20.8938  -21.0224   43.6390 H         1 DA          0.0685
     46 H6        -21.3460  -19.0602   41.6072 H         1 DA          0.0349
     47 H7        -22.0762  -20.6995   41.6859 H         1 DA          0.0349
     48 H8        -19.5697  -19.7585   40.2537 H         1 DA          0.0969
     49 H9        -19.3819  -22.2491   38.3920 H         1 DA          0.1349
     50 H10       -24.6728  -21.5180   35.2315 H         1 DA          0.1820
     51 H11       -23.0629  -22.2865   35.2469 H         1 DA          0.1820
     52 H12       -24.9852  -19.1593   39.0357 H         1 DA          0.0996
     53 H13       -23.0809  -18.7484   44.5191 H         1 DA          0.0647
     54 H14       -22.9959  -18.8214   46.3119 H         1 DA          0.0647
     55 H15       -24.8897  -20.0882   45.5456 H         1 DA          0.0650
     56 H16       -23.0606  -21.2515   47.2674 H         1 DA          0.0622
     57 H17       -24.7812  -22.7511   47.5942 H         1 DA          0.2099
     58 H18       -23.0774  -23.6939   46.1184 H         1 DA          0.0346
     59 H19       -21.8811  -22.4816   45.5476 H         1 DA          0.0346
     60 H20       -24.6484  -23.1324   44.4023 H         1 DA          0.0994
     61 H21       -20.9774  -23.5556   43.9211 H         1 DA          0.1823
     62 H22       -24.3039  -24.0543   38.4485 H         1 DA          0.1819
     63 H23       -26.9598  -22.7301   40.2717 H         1 DA          0.1774
     64 H24       -26.3722  -23.3511   38.7059 H         1 DA          0.1774
     65 H25       -25.4924  -22.6659   42.1465 H         1 DA          0.2519
@<TRIPOS>BOND
     1    1    2 1  
     2    2    3 1  
     3    3    4 1  
     4    3    5 1  
     5    4    8 1  
     6    5    6 1  
     7    5    7 1  
     8    6   19 1  
     9    7    8 1  
    10    8    9 1  
    11    9   10 1  
    12    9   18 1  
    13   10   11 2  
    14   11   12 1  
    15   12   13 ar 
    16   12   18 ar 
    17   13   14 1  
    18   13   15 ar 
    19   15   16 ar 
    20   16   17 ar 
    21   17   18 ar 
    22   19   20 ar 
    23   19   21 ar 
    24   19   22 1  
    25   22   23 1  
    26   23   24 1  
    27   24   25 1  
    28   24   26 1  
    29   25   29 1  
    30   26   27 1  
    31   26   28 1  
    32   28   29 1  
    33   29   30 1  
    34   30   31 1  
    35   30   40 1  
    36   31   32 2  
    37   32   33 1  
    38   33   34 1  
    39   33   40 2  
    40   34   35 2  
    41   34   36 am 
    42   36   37 ar 
    43   37   38 ar 
    44   37   39 ar 
    45   39   40 1  
    46    1   41 1  
    47    2   42 1  
    48    2   43 1  
    49    3   44 1  
    50    5   45 1  
    51    7   46 1  
    52    7   47 1  
    53    8   48 1  
    54   10   49 1  
    55   14   50 1  
    56   14   51 1  
    57   16   52 1  
    58   23   53 1  
    59   23   54 1  
    60   24   55 1  
    61   26   56 1  
    62   27   57 1  
    63   28   58 1  
    64   28   59 1  
    65   29   60 1  
    66   31   61 1  
    67   36   62 1  
    68   38   63 1  
    69   38   64 1  
    70   39   65 1  
@<TRIPOS>SUBSTRUCTURE
     1 DA          1

