#	Name:			4z07_ligand
#	Creating user name:	wangrx
#	Creation time:		Thu Dec 14 16:56:55 2017

#	Modifying user name:	wangrx
#	Modification time:	Thu Dec 14 16:57:31 2017

@<TRIPOS>MOLECULE
4z07_ligand
   34    37     1     0     0
SMALL
GAST_HUCK


@<TRIPOS>ATOM
      1 PA         25.9040  -21.9010  -27.5290 P.3       1 PCG         0.2557 
      2 O1A        25.0040  -23.0690  -26.8030 O.co2     1 PCG        -0.6177 
      3 O2A        26.1440  -22.0020  -28.9630 O.co2     1 PCG        -0.6177 
      4 O5'        25.1600  -20.5930  -27.2600 O.3       1 PCG        -0.2514 
      5 C5'        24.9860  -20.4560  -25.7420 C.3       1 PCG         0.1128 
      6 C4'        26.3270  -20.1890  -25.1650 C.3       1 PCG         0.1242 
      7 O4'        26.5650  -19.8220  -23.7900 O.3       1 PCG        -0.3359 
      8 C3'        27.1830  -21.4220  -25.3110 C.3       1 PCG         0.1540 
      9 O3'        27.3240  -21.8830  -26.6970 O.3       1 PCG        -0.2453 
     10 C2'        28.4640  -21.1260  -24.5610 C.3       1 PCG         0.1440 
     11 O2'        29.5400  -20.8110  -25.3730 O.3       1 PCG        -0.3832 
     12 C1'        27.9780  -20.1060  -23.5090 C.3       1 PCG         0.1996 
     13 N9         28.1000  -20.6180  -22.1170 N.pl3     1 PCG        -0.2101 
     14 C8         28.7590  -19.9530  -20.9860 C.2       1 PCG         0.0957 
     15 N7         28.7550  -20.8870  -19.8700 N.2       1 PCG        -0.3235 
     16 C5         27.8540  -21.9900  -20.2480 C.2       1 PCG         0.0926 
     17 C6         27.3360  -23.1590  -19.4620 C.2       1 PCG         0.2135 
     18 O6         27.7410  -23.3080  -18.1380 O.2       1 PCG        -0.4091 
     19 N1         26.4710  -24.0660  -20.0390 N.am      1 PCG        -0.1839 
     20 C2         26.0720  -23.9060  -21.3890 C.2       1 PCG         0.2340 
     21 N2         25.1950  -24.8920  -22.0000 N.pl3     1 PCG        -0.2807 
     22 N3         26.5840  -22.7370  -22.1900 N.2       1 PCG        -0.2765 
     23 C4         27.4470  -21.8350  -21.6000 C.2       1 PCG         0.1159 
     24 H1         24.5757  -21.3874  -25.3248 H         1 PCG         0.0647 
     25 H2         24.3060  -19.6217  -25.5151 H         1 PCG         0.0647 
     26 H3         26.7446  -19.3769  -25.7783 H         1 PCG         0.0655 
     27 H4         26.6796  -22.2419  -24.7778 H         1 PCG         0.0712 
     28 H5         28.7705  -22.0342  -24.0213 H         1 PCG         0.0681 
     29 H6         29.7202  -21.5399  -25.9550 H         1 PCG         0.2102 
     30 H7         28.5701  -19.1836  -23.6012 H         1 PCG         0.0998 
     31 H8         29.1743  -18.9463  -20.9828 H         1 PCG         0.1179 
     32 H9         26.1254  -24.8369  -19.5039 H         1 PCG         0.2515 
     33 H10        24.9009  -24.7821  -22.9810 H         1 PCG         0.1897 
     34 H11        24.8679  -25.7003  -21.4518 H         1 PCG         0.1897 
@<TRIPOS>BOND
     1    1    2 ar   
     2    1    3 ar   
     3    1    4 1    
     4    1    9 1    
     5    4    5 1    
     6    5    6 1    
     7    6    7 1    
     8    6    8 1    
     9    7   12 1    
    10    8    9 1    
    11    8   10 1    
    12   10   11 1    
    13   10   12 1    
    14   12   13 1    
    15   13   14 1    
    16   13   23 1    
    17   14   15 2    
    18   15   16 1    
    19   16   17 1    
    20   16   23 2    
    21   17   18 2    
    22   17   19 am   
    23   19   20 am   
    24   20   21 1    
    25   20   22 2    
    26   22   23 1    
    27    5   24 1    
    28    5   25 1    
    29    6   26 1    
    30    8   27 1    
    31   10   28 1    
    32   11   29 1    
    33   12   30 1    
    34   14   31 1    
    35   19   32 1    
    36   21   33 1    
    37   21   34 1    
@<TRIPOS>SUBSTRUCTURE
     1 PCG         1 PERM              0 ****  ****    0 ROOT 
