2iw4_ligand

Created by X-TOOL on Fri Nov 18 14:19:28 2016
 10  9  0  0  0  0  0  0  0  0999 V2000
  -41.0620  -65.2110   51.6070  P 0  0  0  1  0  4
  -40.3680  -66.1080   52.6540  O 0  0  0  1  0  1
  -40.9310  -63.7580   51.9620  O 0  0  0  1  0  1
  -40.7540  -65.6590   50.2040  O 0  0  0  1  0  1
  -42.7040  -65.5310   51.7520  N 0  0  0  2  0  3
  -44.0470  -64.5520   51.8760  P 0  0  0  1  0  4
  -44.5960  -64.5210   53.3280  O 0  0  0  1  0  1
  -43.6580  -63.1220   51.5030  O 0  0  0  1  0  1
  -45.0370  -65.2490   50.8950  O 0  0  0  1  0  1
  -42.9199  -66.5073   51.7670  H 0  0  0  1  0  1
  1  2  2  0  0  2
  1  3  2  0  0  2
  1  4  2  0  0  2
  1  5  1  0  0  2
  5  6  1  0  0  2
  6  7  2  0  0  2
  6  8  2  0  0  2
  6  9  2  0  0  2
  5 10  1  0  0  2
M  END
> <MOLECULAR_FORMULA>
HNO6P2

> <MOLECULAR_WEIGHT>
173.0

> <NUM_HB_ATOMS>
7  

> <NUM_ROTOR>
0  

> <XLOGP2>
-2.14

$$$$
