### 
### Created by X-TOOL on Fri Nov 18 15:08:24 2016
### 

@<TRIPOS>MOLECULE
3bxg_ligand
   27    27     1     0     0
SMALL
GAST_HUCK


@<TRIPOS>ATOM
      1 C1         68.7950   84.7340   60.6060 C.3       1 BG6         0.1854
      2 C2         68.0100   85.4190   61.7310 C.3       1 BG6         0.1339
      3 O1         68.1560   84.8970   59.3530 O.3       1 BG6        -0.3649
      4 O5         69.0460   83.3600   60.9700 O.3       1 BG6        -0.3404
      5 C3         68.9700   85.5970   62.9110 C.3       1 BG6         0.1141
      6 O2         67.4420   86.6780   61.3140 O.3       1 BG6        -0.3841
      7 C4         69.7480   84.2630   63.1350 C.3       1 BG6         0.1122
      8 O3         68.1700   85.9160   64.1050 O.3       1 BG6        -0.3864
      9 C5         70.1130   83.3610   61.9260 C.3       1 BG6         0.1176
     10 O4         70.9670   84.5370   63.8340 O.3       1 BG6        -0.3865
     11 C6         70.4700   81.9430   62.4000 C.3       1 BG6         0.1071
     12 O6         70.5590   80.9820   61.3250 O.3       1 BG6        -0.2734
     13 P          70.6440   79.3970   61.5930 P.3       1 BG6         0.2008
     14 O1P        70.4280   78.8050   60.2150 O.co2     1 BG6        -0.5537
     15 O2P        72.0320   79.1270   62.1250 O.co2     1 BG6        -0.5537
     16 O3P        69.5120   79.0800   62.5640 O.co2     1 BG6        -0.5537
     17 H1         69.7725   85.2325   60.5292 H         1 BG6         0.0935
     18 H2         67.1845   84.7604   62.0388 H         1 BG6         0.0671
     19 H3         68.7003   84.5228   58.6701 H         1 BG6         0.2126
     20 H4         69.6789   86.4123   62.7043 H         1 BG6         0.0648
     21 H5         66.8533   86.5319   60.5828 H         1 BG6         0.2101
     22 H6         69.1066   83.6523   63.7874 H         1 BG6         0.0647
     23 H7         68.7458   86.0102   64.8547 H         1 BG6         0.2100
     24 H8         71.0025   83.7855   61.4376 H         1 BG6         0.0650
     25 H9         71.5713   84.9825   63.2519 H         1 BG6         0.2100
     26 H10        69.6957   81.6062   63.1050 H         1 BG6         0.0639
     27 H11        71.4419   81.9818   62.9137 H         1 BG6         0.0639
@<TRIPOS>BOND
     1    1    2 1  
     2    1    3 1  
     3    1    4 1  
     4    2    5 1  
     5    2    6 1  
     6    4    9 1  
     7    5    7 1  
     8    5    8 1  
     9    7    9 1  
    10    7   10 1  
    11    9   11 1  
    12   11   12 1  
    13   12   13 1  
    14   13   14 ar 
    15   13   15 ar 
    16   13   16 ar 
    17    1   17 1  
    18    2   18 1  
    19    3   19 1  
    20    5   20 1  
    21    6   21 1  
    22    7   22 1  
    23    8   23 1  
    24    9   24 1  
    25   10   25 1  
    26   11   26 1  
    27   11   27 1  
@<TRIPOS>SUBSTRUCTURE
     1 BG6         1

