### 
### Created by X-TOOL on Fri Nov 18 13:29:52 2016
### 

@<TRIPOS>MOLECULE
1ucn_ligand
   39    41     1     0     0
SMALL
GAST_HUCK


@<TRIPOS>ATOM
      1 PB         -8.7700   96.8750   16.0660 P.3       1 ADP         0.2069
      2 O1B        -8.8350   97.6750   14.8160 O.co2     1 ADP        -0.5891
      3 O2B        -7.6870   95.8750   16.2280 O.co2     1 ADP        -0.5891
      4 O3B        -8.6760   97.8940   17.2880 O.co2     1 ADP        -0.5891
      5 PA        -11.5710   96.8260   16.1870 P.3       1 ADP         0.3276
      6 O1A       -11.3610   98.2290   15.7410 O.co2     1 ADP        -0.5556
      7 O2A       -12.4890   95.9430   15.4210 O.co2     1 ADP        -0.5556
      8 O3A       -10.1510   96.0950   16.2010 O.3       1 ADP        -0.1548
      9 O5        -12.0920   96.8800   17.6910 O.3       1 ADP        -0.2436
     10 C5        -11.8230   98.0040   18.5150 C.3       1 ADP         0.1132
     11 C4        -11.4430   97.5520   19.9020 C.3       1 ADP         0.1189
     12 O4        -12.5530   96.8180   20.4790 O.3       1 ADP        -0.3364
     13 C3        -10.2840   96.5720   19.9820 C.3       1 ADP         0.1149
     14 O3         -9.0360   97.2550   19.9420 O.3       1 ADP        -0.3864
     15 C2        -10.5270   95.9070   21.3330 C.3       1 ADP         0.1385
     16 O2        -10.0700   96.6770   22.4270 O.3       1 ADP        -0.3836
     17 C1        -12.0560   95.8240   21.3610 C.3       1 ADP         0.2010
     18 N9        -12.5490   94.5180   20.9230 N.pl3     1 ADP        -0.1919
     19 C8        -12.6720   94.0340   19.6440 C.2       1 ADP         0.1123
     20 N7        -13.1190   92.8030   19.5870 N.2       1 ADP        -0.2958
     21 C5        -13.3080   92.4550   20.9180 C.ar      1 ADP         0.1045
     22 C6        -13.7670   91.2770   21.5330 C.ar      1 ADP         0.1298
     23 N6        -14.1340   90.1820   20.8570 N.pl3     1 ADP        -0.3152
     24 N1        -13.8400   91.2600   22.8840 N.ar      1 ADP        -0.2698
     25 C2        -13.4780   92.3590   23.5580 C.ar      1 ADP         0.0533
     26 N3        -13.0330   93.5250   23.0930 N.ar      1 ADP        -0.2714
     27 C4        -12.9700   93.5050   21.7500 C.ar      1 ADP         0.1613
     28 H1        -12.7213   98.6363   18.5720 H         1 ADP         0.0648
     29 H2        -10.9941   98.5827   18.0814 H         1 ADP         0.0648
     30 H3        -11.2094   98.4424   20.5042 H         1 ADP         0.0651
     31 H4        -10.3239   95.8367   19.1649 H         1 ADP         0.0648
     32 H5         -8.9687   97.7420   19.1291 H         1 ADP         0.2100
     33 H6        -10.0641   94.9098   21.3700 H         1 ADP         0.0676
     34 H7         -9.1347   96.8208   22.3429 H         1 ADP         0.2101
     35 H8        -12.4115   96.0169   22.3839 H         1 ADP         0.0996
     36 H9        -12.4216   94.6181   18.7597 H         1 ADP         0.1349
     37 H10       -14.4622   89.3486   21.3656 H         1 ADP         0.1820
     38 H11       -14.0883   90.1725   19.8281 H         1 ADP         0.1820
     39 H12       -13.5587   92.2897   24.6368 H         1 ADP         0.0996
@<TRIPOS>BOND
     1    1    2 ar 
     2    1    3 ar 
     3    1    4 ar 
     4    8    1 1  
     5    5    6 ar 
     6    5    7 ar 
     7    5    8 1  
     8    5    9 1  
     9    9   10 1  
    10   10   11 1  
    11   11   12 1  
    12   11   13 1  
    13   12   17 1  
    14   13   14 1  
    15   13   15 1  
    16   15   16 1  
    17   15   17 1  
    18   17   18 1  
    19   18   19 1  
    20   18   27 1  
    21   19   20 2  
    22   20   21 1  
    23   21   22 ar 
    24   21   27 ar 
    25   22   23 1  
    26   22   24 ar 
    27   24   25 ar 
    28   25   26 ar 
    29   26   27 ar 
    30   10   28 1  
    31   10   29 1  
    32   11   30 1  
    33   13   31 1  
    34   14   32 1  
    35   15   33 1  
    36   16   34 1  
    37   17   35 1  
    38   19   36 1  
    39   23   37 1  
    40   23   38 1  
    41   25   39 1  
@<TRIPOS>SUBSTRUCTURE
     1 ADP         1

