### 
### Created by X-TOOL on Fri Nov 18 12:07:32 2016
### 

@<TRIPOS>MOLECULE
1ado_ligand
   15    14     1     0     0
SMALL
GAST_HUCK


@<TRIPOS>ATOM
      1 P          23.0580   27.2320   23.7810 P.3       1 MOL         0.2042
      2 O1P        23.2740   25.7610   24.4310 O.co2     1 MOL        -0.5536
      3 O2P        21.6730   26.9720   23.0650 O.co2     1 MOL        -0.5536
      4 O3P        24.0790   27.5410   22.6520 O.co2     1 MOL        -0.5536
      5 O1         22.8890   28.5100   24.7710 O.3       1 MOL        -0.2570
      6 C1         23.4170   29.8220   24.4360 C.3       1 MOL         0.1532
      7 C2         24.5750   30.2800   25.3010 C.2       1 MOL         0.1608
      8 O2         24.6250   29.9610   26.4860 O.2       1 MOL        -0.3863
      9 C3         25.6620   31.1460   24.6940 C.3       1 MOL         0.1198
     10 O3         25.8750   30.7770   23.3430 O.3       1 MOL        -0.3756
     11 H1         22.6030   30.5549   24.5376 H         1 MOL         0.0850
     12 H2         23.7594   29.7967   23.3910 H         1 MOL         0.0850
     13 H3         26.5951   31.0104   25.2604 H         1 MOL         0.0793
     14 H4         25.3554   32.2014   24.7397 H         1 MOL         0.0793
     15 H5         26.5567   31.3236   22.9703 H         1 MOL         0.2130
@<TRIPOS>BOND
     1    1    2 ar 
     2    1    3 ar 
     3    1    4 ar 
     4    1    5 1  
     5    5    6 1  
     6    6    7 1  
     7    7    8 2  
     8    7    9 1  
     9    9   10 1  
    10    6   11 1  
    11    6   12 1  
    12    9   13 1  
    13    9   14 1  
    14   10   15 1  
@<TRIPOS>SUBSTRUCTURE
     1 MOL         1

