### 
### Created by X-TOOL on Wed Dec 13 14:18:26 2017
### 

@<TRIPOS>MOLECULE
5evz_ligand
   39    41     1     0     0
SMALL
GAST_HUCK


@<TRIPOS>ATOM
      1 PB         20.3340   -0.3910    2.9960 P.3       1 ADP         0.2069
      2 O1B        20.1830   -0.0100    1.5640 O.co2     1 ADP        -0.5891
      3 O2B        21.7230   -0.2740    3.6090 O.co2     1 ADP        -0.5891
      4 O3B        19.2670    0.1670    3.9070 O.co2     1 ADP        -0.5891
      5 PA         18.9690   -2.9280    2.4560 P.3       1 ADP         0.3276
      6 O1A        17.9710   -2.1220    1.7150 O.co2     1 ADP        -0.5556
      7 O2A        19.6880   -4.0750    1.8040 O.co2     1 ADP        -0.5556
      8 O3A        20.1030   -2.0010    3.1070 O.3       1 ADP        -0.1548
      9 O5'        18.1700   -3.4430    3.7600 O.3       1 ADP        -0.2436
     10 C5'        18.8780   -4.1400    4.7990 C.3       1 ADP         0.1132
     11 C4'        17.8920   -4.7120    5.8050 C.3       1 ADP         0.1189
     12 O4'        17.0360   -5.6150    5.1110 O.3       1 ADP        -0.3364
     13 C3'        18.5940   -5.4900    6.9120 C.3       1 ADP         0.1149
     14 O3'        18.0990   -5.1270    8.1930 O.3       1 ADP        -0.3864
     15 C2'        18.2660   -6.9390    6.6200 C.3       1 ADP         0.1385
     16 O2'        18.2430   -7.7010    7.8450 O.3       1 ADP        -0.3836
     17 C1'        16.9080   -6.7460    5.9550 C.3       1 ADP         0.2010
     18 N9         16.4880   -7.9240    5.1830 N.pl3     1 ADP        -0.1919
     19 C8         17.1210   -8.4560    4.1360 C.2       1 ADP         0.1123
     20 N7         16.4500   -9.5570    3.7100 N.2       1 ADP        -0.2958
     21 C5         15.3620   -9.6990    4.4960 C.ar      1 ADP         0.1045
     22 C6         14.2500  -10.6480    4.5870 C.ar      1 ADP         0.1298
     23 N6         14.2130  -11.6600    3.6840 N.pl3     1 ADP        -0.3152
     24 N1         13.3210  -10.4510    5.5550 N.ar      1 ADP        -0.2698
     25 C2         13.3930   -9.4270    6.4340 C.ar      1 ADP         0.0533
     26 N3         14.4030   -8.5230    6.4070 N.ar      1 ADP        -0.2714
     27 C4         15.3900   -8.6150    5.4780 C.ar      1 ADP         0.1613
     28 H1         19.5560   -3.4409    5.3103 H         1 ADP         0.0648
     29 H2         19.4626   -4.9594    4.3553 H         1 ADP         0.0648
     30 H3         17.3047   -3.8942    6.2481 H         1 ADP         0.0651
     31 H4         19.6801   -5.3192    6.8764 H         1 ADP         0.0648
     32 H5         18.5542   -5.6269    8.8605 H         1 ADP         0.2100
     33 H6         18.9865   -7.3969    5.9263 H         1 ADP         0.0676
     34 H7         18.0364   -8.6073    7.6490 H         1 ADP         0.2101
     35 H8         16.1501   -6.5478    6.7272 H         1 ADP         0.0996
     36 H9         18.0357   -8.0669    3.6912 H         1 ADP         0.1349
     37 H10        13.4478  -12.3488    3.7135 H         1 ADP         0.1820
     38 H11        14.9501  -11.7394    2.9690 H         1 ADP         0.1820
     39 H12        12.6180   -9.3251    7.1850 H         1 ADP         0.0996
@<TRIPOS>BOND
     1    1    2 ar 
     2    1    3 ar 
     3    1    4 ar 
     4    8    1 1  
     5    5    6 ar 
     6    5    7 ar 
     7    5    8 1  
     8    5    9 1  
     9    9   10 1  
    10   10   11 1  
    11   11   12 1  
    12   11   13 1  
    13   12   17 1  
    14   13   14 1  
    15   13   15 1  
    16   15   16 1  
    17   15   17 1  
    18   17   18 1  
    19   18   19 1  
    20   18   27 1  
    21   19   20 2  
    22   20   21 1  
    23   21   22 ar 
    24   21   27 ar 
    25   22   23 1  
    26   22   24 ar 
    27   24   25 ar 
    28   25   26 ar 
    29   26   27 ar 
    30   10   28 1  
    31   10   29 1  
    32   11   30 1  
    33   13   31 1  
    34   14   32 1  
    35   15   33 1  
    36   16   34 1  
    37   17   35 1  
    38   19   36 1  
    39   23   37 1  
    40   23   38 1  
    41   25   39 1  
@<TRIPOS>SUBSTRUCTURE
     1 ADP         1

