### 
### Created by X-TOOL on Fri Nov 18 17:29:34 2016
### 

@<TRIPOS>MOLECULE
4del_ligand
   14    13     1     0     0
SMALL
GAST_HUCK


@<TRIPOS>ATOM
      1 C1          8.7110   41.3500   22.3350 C.2       1 PGH         0.2297
      2 C2          7.7240   41.5430   21.2300 C.3       1 PGH         0.1686
      3 N2          9.0290   42.3600   23.1140 N.am      1 PGH        -0.1620
      4 O2          9.9230   42.1490   24.1330 O.3       1 PGH        -0.2717
      5 O1          9.2650   40.1010   22.5080 O.2       1 PGH        -0.3940
      6 O1P         8.2230   40.9490   20.0440 O.3       1 PGH        -0.2560
      7 O2P         7.9490   40.3910   17.5730 O.co2     1 PGH        -0.5536
      8 O3P         5.9910   41.0720   18.9180 O.co2     1 PGH        -0.5536
      9 O4P         7.7510   42.7720   18.3540 O.co2     1 PGH        -0.5536
     10 P           7.4600   41.3110   18.6620 P.3       1 PGH         0.2041
     11 H1          7.5656   42.6187   21.0631 H         1 PGH         0.0857
     12 H2          6.7694   41.0699   21.5038 H         1 PGH         0.0857
     13 H3          8.6274   43.2639   22.9668 H         1 PGH         0.2217
     14 H4         10.0565   42.9604   24.6087 H         1 PGH         0.2490
@<TRIPOS>BOND
     1    1    2 1  
     2    1    3 am 
     3    1    5 2  
     4    2    6 1  
     5    3    4 1  
     6    6   10 1  
     7   10    7 ar 
     8   10    8 ar 
     9   10    9 ar 
    10    2   11 1  
    11    2   12 1  
    12    3   13 1  
    13    4   14 1  
@<TRIPOS>SUBSTRUCTURE
     1 PGH         1

