### 
### Created by X-TOOL on Fri Nov 18 12:01:59 2016
### 

@<TRIPOS>MOLECULE
1lkk_ligand
   80    80     1     0     0
SMALL
GAST_HUCK


@<TRIPOS>ATOM
      1 CH3        28.8610   -4.7940   -3.5820 C.3       1 MOL         0.0258
      2 C          28.6600   -4.0550   -2.2920 C.2       1 MOL         0.1753
      3 O          29.1410   -4.4820   -1.2000 O.2       1 MOL        -0.3972
      4 N          27.9920   -2.9090   -2.3540 N.am      1 MOL        -0.2628
      5 CA         27.7720   -2.0420   -1.2120 C.3       1 MOL         0.1468
      6 C          26.2910   -1.9860   -0.8630 C.2       1 MOL         0.2074
      7 O          25.4100   -1.8900   -1.7450 O.2       1 MOL        -0.3941
      8 CB         28.2900   -0.6370   -1.5010 C.3       1 MOL         0.0400
      9 CG         29.8120   -0.5510   -1.6050 C.ar      1 MOL        -0.0004
     10 CD1        30.5680   -0.4220   -0.4380 C.ar      1 MOL        -0.0239
     11 CD2        30.4580   -0.5760   -2.8230 C.ar      1 MOL        -0.0239
     12 CE1        31.9510   -0.3440   -0.5240 C.ar      1 MOL         0.0115
     13 CE2        31.8470   -0.5120   -2.9190 C.ar      1 MOL         0.0115
     14 CZ         32.5660   -0.3850   -1.7380 C.ar      1 MOL         0.1728
     15 OH         33.9590   -0.1890   -1.8140 O.3       1 MOL        -0.2040
     16 N          26.0100   -1.9430    0.4220 N.am      1 MOL        -0.2634
     17 CA         24.7090   -1.5990    0.9540 C.3       1 MOL         0.1325
     18 C          24.5340   -0.0730    0.8900 C.2       1 MOL         0.2040
     19 O          25.4950    0.6790    0.9110 O.2       1 MOL        -0.3944
     20 CB         24.6070   -2.0780    2.4120 C.3       1 MOL        -0.0008
     21 CG         24.3580   -3.5510    2.5580 C.3       1 MOL         0.0044
     22 CD         22.9540   -3.9630    2.1470 C.2       1 MOL         0.0350
     23 OE1        21.9780   -3.5060    2.8140 O.co2     1 MOL        -0.5690
     24 OE2        22.8010   -4.5810    1.0880 O.co2     1 MOL        -0.5690
     25 N          23.2600    0.3060    0.8790 N.am      1 MOL        -0.2636
     26 CA         22.8070    1.6850    0.9550 C.3       1 MOL         0.1324
     27 C          21.9240    1.8330    2.2120 C.2       1 MOL         0.2035
     28 O          21.1770    0.9190    2.5730 O.2       1 MOL        -0.3944
     29 CB         21.9690    2.0440   -0.2740 C.3       1 MOL        -0.0008
     30 CG         22.6690    1.9710   -1.5960 C.3       1 MOL         0.0044
     31 CD         23.5940    3.1020   -1.9320 C.2       1 MOL         0.0350
     32 OE1        23.8730    3.9610   -1.0750 O.co2     1 MOL        -0.5690
     33 OE2        24.0760    3.1340   -3.0930 O.co2     1 MOL        -0.5690
     34 N          21.9430    3.0130    2.8020 N.am      1 MOL        -0.2692
     35 CA         20.8590    3.3710    3.7270 C.3       1 MOL         0.0969
     36 C          19.5540    3.5240    2.9430 C.2       1 MOL         0.0604
     37 O          19.5830    4.1690    1.8700 O.co2     1 MOL        -0.5666
     38 CB         21.2430    4.6690    4.4870 C.3       1 MOL        -0.0092
     39 CG1        22.3670    4.3990    5.4700 C.3       1 MOL        -0.0497
     40 CG2        20.0300    5.2890    5.1220 C.3       1 MOL        -0.0588
     41 CD1        22.8740    5.5610    6.2660 C.3       1 MOL        -0.0649
     42 OXT        18.5250    2.9450    3.3970 O.co2     1 MOL        -0.5666
     43 P          35.0610   -1.3700   -1.5240 P.3       1 MOL         0.1348
     44 O1P        35.5390   -1.8270   -2.8860 O.co2     1 MOL        -0.6653
     45 O2P        34.3780   -2.4450   -0.7200 O.co2     1 MOL        -0.6653
     46 O3P        36.1530   -0.5940   -0.7600 O.co2     1 MOL        -0.6653
     47 H1         28.3624   -4.2499   -4.3977 H         1 MOL         0.0467
     48 H2         28.4308   -5.8028   -3.4975 H         1 MOL         0.0467
     49 H3         29.9371   -4.8710   -3.7967 H         1 MOL         0.0467
     50 H4         27.6194   -2.6277   -3.2383 H         1 MOL         0.1885
     51 H5         28.3218   -2.4503   -0.3512 H         1 MOL         0.0840
     52 H6         27.9596    0.0283   -0.6897 H         1 MOL         0.0584
     53 H7         27.8574   -0.2968   -2.4534 H         1 MOL         0.0584
     54 H8         30.0781   -0.3831    0.5282 H         1 MOL         0.0703
     55 H9         29.8695   -0.6474   -3.7306 H         1 MOL         0.0703
     56 H10        32.5437   -0.2501    0.3787 H         1 MOL         0.0736
     57 H11        32.3471   -0.5596   -3.8796 H         1 MOL         0.0736
     58 H12        26.7397   -2.1613    1.0700 H         1 MOL         0.1883
     59 H13        23.9249   -2.0844    0.3544 H         1 MOL         0.0801
     60 H14        23.7794   -1.5384    2.8957 H         1 MOL         0.0330
     61 H15        25.5509   -1.8352    2.9221 H         1 MOL         0.0330
     62 H16        24.5098   -3.8288    3.6114 H         1 MOL         0.0433
     63 H17        25.0797   -4.0920    1.9284 H         1 MOL         0.0433
     64 H18        22.5635   -0.4086    0.8138 H         1 MOL         0.1883
     65 H19        23.6748    2.3578    1.0205 H         1 MOL         0.0801
     66 H20        21.6055    3.0739   -0.1432 H         1 MOL         0.0330
     67 H21        21.1126    1.3546   -0.3093 H         1 MOL         0.0330
     68 H22        21.8980    1.9272   -2.3793 H         1 MOL         0.0433
     69 H23        23.2590    1.0427   -1.6099 H         1 MOL         0.0433
     70 H24        22.6869    3.6565    2.6216 H         1 MOL         0.1875
     71 H25        20.7315    2.5619    4.4612 H         1 MOL         0.0729
     72 H26        21.6250    5.3885    3.7478 H         1 MOL         0.0338
     73 H27        23.2155    3.9936    4.8992 H         1 MOL         0.0267
     74 H28        22.0087    3.6412    6.1823 H         1 MOL         0.0267
     75 H29        19.2595    5.4560    4.3549 H         1 MOL         0.0234
     76 H30        20.3065    6.2504    5.5793 H         1 MOL         0.0234
     77 H31        19.6362    4.6143    5.8964 H         1 MOL         0.0234
     78 H32        23.6814    5.2242    6.9329 H         1 MOL         0.0230
     79 H33        22.0532    5.9801    6.8666 H         1 MOL         0.0230
     80 H34        23.2600    6.3325    5.5835 H         1 MOL         0.0230
@<TRIPOS>BOND
     1    2    3 2  
     2    5    6 1  
     3    8    5 1  
     4    5    4 1  
     5    9    8 1  
     6   11    9 ar 
     7   10    9 ar 
     8   12   10 ar 
     9   14   12 ar 
    10   15   14 1  
    11   14   13 ar 
    12   13   11 ar 
    13    6    7 2  
    14   17   18 1  
    15   17   20 1  
    16   16   17 1  
    17   20   21 1  
    18   21   22 1  
    19   22   23 ar 
    20   22   24 ar 
    21   18   19 2  
    22   26   27 1  
    23   26   29 1  
    24   25   26 1  
    25   29   30 1  
    26   30   31 1  
    27   31   32 ar 
    28   31   33 ar 
    29   27   28 2  
    30   35   36 1  
    31   35   38 1  
    32   34   35 1  
    33   38   39 1  
    34   38   40 1  
    35   39   41 1  
    36   36   42 ar 
    37   36   37 ar 
    38   43   46 ar 
    39   43   45 ar 
    40   43   44 ar 
    41    4    2 am 
    42    6   16 am 
    43   18   25 am 
    44   27   34 am 
    45   15   43 1  
    46    2    1 1  
    47    1   47 1  
    48    1   48 1  
    49    1   49 1  
    50    4   50 1  
    51    5   51 1  
    52    8   52 1  
    53    8   53 1  
    54   10   54 1  
    55   11   55 1  
    56   12   56 1  
    57   13   57 1  
    58   16   58 1  
    59   17   59 1  
    60   20   60 1  
    61   20   61 1  
    62   21   62 1  
    63   21   63 1  
    64   25   64 1  
    65   26   65 1  
    66   29   66 1  
    67   29   67 1  
    68   30   68 1  
    69   30   69 1  
    70   34   70 1  
    71   35   71 1  
    72   38   72 1  
    73   39   73 1  
    74   39   74 1  
    75   40   75 1  
    76   40   76 1  
    77   40   77 1  
    78   41   78 1  
    79   41   79 1  
    80   41   80 1  
@<TRIPOS>SUBSTRUCTURE
     1 MOL         1

