### 
### Created by X-TOOL on Fri Nov 18 16:10:12 2016
### 

@<TRIPOS>MOLECULE
3iae_ligand
   79    81     1     0     0
SMALL
GAST_HUCK


@<TRIPOS>ATOM
      1 PA         -2.9350  -50.0030  -29.7900 P.3       1 D7K         0.3275
      2 O1A        -3.4690  -50.3920  -31.2990 O.co2     1 D7K        -0.5556
      3 O2A        -2.1510  -51.1960  -29.3770 O.co2     1 D7K        -0.5556
      4 O1B        -6.5320  -49.3790  -28.0370 O.co2     1 D7K        -0.5891
      5 PB         -5.2280  -48.6220  -28.7190 P.3       1 D7K         0.2069
      6 O2B        -5.3710  -48.1810  -30.3110 O.co2     1 D7K        -0.5891
      7 O3B        -4.7880  -47.4280  -27.9440 O.co2     1 D7K        -0.5891
      8 O3A        -4.0870  -49.8160  -28.6440 O.3       1 D7K        -0.1548
      9 O01        -2.1400  -48.5730  -29.8520 O.3       1 D7K        -0.2462
     10 C01        -1.3480  -48.1590  -28.7760 C.3       1 D7K         0.0856
     11 C05        -1.0560  -46.6940  -29.0850 C.3       1 D7K        -0.0071
     12 C04         0.0210  -46.0960  -28.1720 C.3       1 D7K         0.0555
     13 C03         1.5350  -45.9340  -28.5530 C.3       1 D7K        -0.0092
     14 CM4         2.1690  -46.3630  -29.8810 C.3       1 D7K        -0.0205
     15 S1         -0.2430  -45.5120  -26.6440 S.3       1 D7K        -0.0947
     16 C02         1.4000  -45.0210  -26.2400 C.3       1 D7K         0.0766
     17 N3          2.3460  -45.2760  -27.4010 N.4       1 D7K         0.2592
     18 C18         3.7810  -45.0010  -27.4720 C.3       1 D7K        -0.0024
     19 C19         4.6090  -46.2880  -27.4480 C.2       1 D7K         0.0649
     20 C20         5.5100  -46.6180  -28.5840 C.2       1 D7K        -0.0086
     21 C21         4.5560  -47.1930  -26.2470 C.3       1 D7K         0.0170
     22 N22         3.7200  -46.9170  -25.1240 N.4       1 D7K         0.2630
     23 N23         5.3490  -48.3900  -26.1750 N.4       1 D7K         0.2879
     24 C24         6.2510  -48.7460  -27.2810 C.3       1 D7K         0.0555
     25 N25         6.3070  -47.8450  -28.4850 N.pl3     1 D7K        -0.3118
     26 CM2         7.0560  -50.0310  -27.1810 C.3       1 D7K        -0.0001
     27 O12         2.8270  -42.2120  -26.5240 O.co2     1 D7K        -0.6184
     28 P8          1.6620  -42.3300  -25.3850 P.3       1 D7K         0.1588
     29 O11         0.3650  -41.8580  -25.9190 O.co2     1 D7K        -0.6184
     30 O9          2.0310  -41.4840  -23.9720 O.3       1 D7K        -0.2801
     31 C10         1.0330  -40.8810  -23.1800 C.3       1 D7K         0.0712
     32 C7          1.6530  -44.1680  -24.9640 C.3       1 D7K         0.2095
     33 O7          2.9620  -44.4340  -24.4670 O.3       1 D7K        -0.3648
     34 C2          0.5300  -44.5120  -23.9190 C.3       1 D7K         0.0130
     35 C3          0.7560  -45.6130  -22.8370 C.3       1 D7K        -0.0458
     36 C4         -0.3190  -45.9570  -21.8040 C.3       1 D7K        -0.0527
     37 C5         -1.6820  -45.2160  -21.8230 C.3       1 D7K        -0.0530
     38 C6         -1.9280  -44.1240  -22.8780 C.3       1 D7K        -0.0527
     39 C1         -0.8340  -43.7810  -23.9220 C.3       1 D7K        -0.0458
     40 H1         -0.4169  -48.7426  -28.7268 H         1 D7K         0.0621
     41 H2         -1.8937  -48.2583  -27.8261 H         1 D7K         0.0621
     42 H3         -1.9837  -46.1167  -28.9585 H         1 D7K         0.0304
     43 H4         -0.7150  -46.6162  -30.1279 H         1 D7K         0.0304
     44 H5          0.2028  -47.1075  -27.7798 H         1 D7K         0.0470
     45 H6          1.3308  -44.9511  -29.0026 H         1 D7K         0.0860
     46 H7          3.2434  -46.1273  -29.8674 H         1 D7K         0.0284
     47 H8          1.6858  -45.8238  -30.7091 H         1 D7K         0.0284
     48 H9          2.0329  -47.4457  -30.0195 H         1 D7K         0.0284
     49 H10         1.6665  -45.9538  -25.7216 H         1 D7K         0.1022
     50 H11         2.1832  -44.3501  -27.7647 H         1 D7K         0.2060
     51 H12         4.0670  -44.3778  -26.6119 H         1 D7K         0.0922
     52 H13         3.9937  -44.4584  -28.4049 H         1 D7K         0.0922
     53 H14         5.5756  -45.9717  -29.4580 H         1 D7K         0.0557
     54 H15         5.3719  -46.6136  -25.7904 H         1 D7K         0.1577
     55 H16         3.8338  -47.6429  -24.4339 H         1 D7K         0.2061
     56 H17         2.7575  -46.8843  -25.4216 H         1 D7K         0.2061
     57 H18         3.9781  -46.0289  -24.7231 H         1 D7K         0.2061
     58 H19         4.7057  -49.1584  -26.0662 H         1 D7K         0.2108
     59 H20         5.9204  -48.3105  -25.3484 H         1 D7K         0.2108
     60 H21         7.0762  -48.1863  -26.8165 H         1 D7K         0.1121
     61 H22         6.9271  -48.0991  -29.2672 H         1 D7K         0.1704
     62 H23         7.6746  -50.1473  -28.0831 H         1 D7K         0.0306
     63 H24         6.3708  -50.8871  -27.0934 H         1 D7K         0.0306
     64 H25         7.7054  -49.9888  -26.2942 H         1 D7K         0.0306
     65 H26         1.4998  -40.3884  -22.3143 H         1 D7K         0.0586
     66 H27         0.3292  -41.6499  -22.8288 H         1 D7K         0.0586
     67 H28         0.4913  -40.1340  -23.7788 H         1 D7K         0.0586
     68 H29         3.6021  -44.2292  -25.1384 H         1 D7K         0.2123
     69 H30         0.9409  -43.7503  -23.2401 H         1 D7K         0.0348
     70 H31         1.6465  -45.3089  -22.2673 H         1 D7K         0.0269
     71 H32         0.9699  -46.5439  -23.3826 H         1 D7K         0.0269
     72 H33         0.1247  -45.7791  -20.8133 H         1 D7K         0.0265
     73 H34        -0.5391  -47.0285  -21.9202 H         1 D7K         0.0265
     74 H35        -1.8048  -44.7438  -20.8371 H         1 D7K         0.0265
     75 H36        -2.4611  -45.9797  -21.9634 H         1 D7K         0.0265
     76 H37        -2.1412  -43.1957  -22.3277 H         1 D7K         0.0265
     77 H38        -2.8207  -44.4277  -23.4445 H         1 D7K         0.0265
     78 H39        -1.2806  -43.9570  -24.9117 H         1 D7K         0.0269
     79 H40        -0.6145  -42.7096  -23.8040 H         1 D7K         0.0269
@<TRIPOS>BOND
     1    1    2 ar 
     2    1    3 ar 
     3    1    8 1  
     4    9    1 1  
     5    5    4 ar 
     6    5    6 ar 
     7    5    7 ar 
     8    8    5 1  
     9   10    9 1  
    10   11   10 1  
    11   12   11 1  
    12   13   12 1  
    13   15   12 1  
    14   13   14 1  
    15   17   13 1  
    16   16   15 1  
    17   16   17 1  
    18   32   16 1  
    19   17   18 1  
    20   18   19 1  
    21   19   20 2  
    22   19   21 1  
    23   20   25 1  
    24   21   22 1  
    25   21   23 1  
    26   23   24 1  
    27   25   24 1  
    28   24   26 1  
    29   28   27 ar 
    30   28   29 ar 
    31   28   30 1  
    32   28   32 1  
    33   30   31 1  
    34   32   33 1  
    35   32   34 1  
    36   34   35 1  
    37   34   39 1  
    38   35   36 1  
    39   36   37 1  
    40   37   38 1  
    41   38   39 1  
    42   10   40 1  
    43   10   41 1  
    44   11   42 1  
    45   11   43 1  
    46   12   44 1  
    47   13   45 1  
    48   14   46 1  
    49   14   47 1  
    50   14   48 1  
    51   16   49 1  
    52   17   50 1  
    53   18   51 1  
    54   18   52 1  
    55   20   53 1  
    56   21   54 1  
    57   22   55 1  
    58   22   56 1  
    59   22   57 1  
    60   23   58 1  
    61   23   59 1  
    62   24   60 1  
    63   25   61 1  
    64   26   62 1  
    65   26   63 1  
    66   26   64 1  
    67   31   65 1  
    68   31   66 1  
    69   31   67 1  
    70   33   68 1  
    71   34   69 1  
    72   35   70 1  
    73   35   71 1  
    74   36   72 1  
    75   36   73 1  
    76   37   74 1  
    77   37   75 1  
    78   38   76 1  
    79   38   77 1  
    80   39   78 1  
    81   39   79 1  
@<TRIPOS>SUBSTRUCTURE
     1 D7K         1

