5a7y_ligand

Created by X-TOOL on Wed Dec 13 14:17:28 2017
 46 48  0  0  0  0  0  0  0  0999 V2000
   46.4430   11.3920   36.8500  N 0  3  0  4  0  4
   45.8320   11.6030   38.1440  C 0  0  0  2  0  4
   44.5770   12.4640   38.0020  C 0  0  0  3  0  4
   44.3540   13.3590   39.2180  C 0  0  0  3  0  4
   44.7930   15.0380   38.9700  S 0  0  0  1  0  2
   45.5490   10.2120   38.5710  C 0  5  0  1  0  3
   45.6990    9.3470   37.6860  O 0  0  0  1  0  1
   45.2260    9.9710   39.7500  O 0  0  0  1  0  1
   43.3150   15.7560   38.3740  C 0  0  0  3  0  4
   43.3380   15.9460   36.8730  C 0  0  0  2  0  4
   44.0700   17.1090   36.5760  O 0  0  0  1  0  2
   44.0190   14.8390   36.1420  C 0  0  0  2  0  4
   43.1870   13.7350   35.8380  O 0  0  0  2  0  2
   44.5060   15.5590   34.9310  C 0  0  0  2  0  4
   43.4360   15.7260   34.0510  O 0  0  0  2  0  2
   44.7850   16.9520   35.3700  C 0  0  0  2  0  4
   46.2330   17.1680   35.6140  N 0  0  0  1  0  3
   46.7400   17.4380   36.8070  C 0  0  0  2  0  3
   48.0530   17.6170   36.7670  N 0  0  0  1  0  2
   48.4410   17.4670   35.5250  C 0  0  0  1  0  3
   49.7260   17.5220   34.8180  C 0  0  0  1  0  3
   50.8650   17.7920   35.4500  N 0  0  0  3  0  3
   49.7190   17.3140   33.5080  N 0  0  0  1  0  2
   48.5900   17.0560   32.8550  C 0  0  0  2  0  3
   47.4010   16.9840   33.4400  N 0  0  0  1  0  2
   47.2440   17.1780   34.7530  C 0  0  0  1  0  3
   46.6876   12.2820   36.4448  H 0  0  0  1  0  1
   45.7929   10.9148   36.2452  H 0  0  0  1  0  1
   47.2743   10.8323   36.9582  H 0  0  0  1  0  1
   46.5270   12.0919   38.8425  H 0  0  0  1  0  1
   43.7054   11.8036   37.8831  H 0  0  0  1  0  1
   44.6811   13.0981   37.1093  H 0  0  0  1  0  1
   44.9558   12.9652   40.0503  H 0  0  0  1  0  1
   43.2877   13.3178   39.4849  H 0  0  0  1  0  1
   43.1789   16.7367   38.8533  H 0  0  0  1  0  1
   42.4717   15.0999   38.6353  H 0  0  0  1  0  1
   42.3036   16.0410   36.5110  H 0  0  0  1  0  1
   44.8688   14.4644   36.7316  H 0  0  0  1  0  1
   42.4659   14.0244   35.2914  H 0  0  0  1  0  1
   45.3708   15.0615   34.4676  H 0  0  0  1  0  1
   43.7347   16.1844   33.2743  H 0  0  0  1  0  1
   44.4317   17.6681   34.6134  H 0  0  0  1  0  1
   46.1461   17.5054   37.7173  H 0  0  0  1  0  1
   51.7505   17.8232   34.9248  H 0  0  0  1  0  1
   50.8614   17.9698   36.4645  H 0  0  0  1  0  1
   48.6437   16.8954   31.7843  H 0  0  0  1  0  1
  1  2  1  0  0  2
  2  3  1  0  0  2
  2  6  1  0  0  2
  3  4  1  0  0  2
  4  5  1  0  0  2
  5  9  1  0  0  2
  6  7  2  0  0  2
  6  8  2  0  0  2
  9 10  1  0  0  2
 10 11  1  0  0  1
 10 12  1  0  0  1
 11 16  1  0  0  1
 12 13  1  0  0  2
 12 14  1  0  0  1
 14 15  1  0  0  2
 14 16  1  0  0  1
 16 17  1  0  0  2
 17 18  1  0  0  1
 17 26  1  0  0  1
 18 19  2  0  0  1
 19 20  1  0  0  1
 20 21  4  0  0  1
 20 26  4  0  0  1
 21 22  1  0  0  2
 21 23  4  0  0  1
 23 24  4  0  0  1
 24 25  4  0  0  1
 25 26  4  0  0  1
  1 27  1  0  0  2
  1 28  1  0  0  2
  1 29  1  0  0  2
  2 30  1  0  0  2
  3 31  1  0  0  2
  3 32  1  0  0  2
  4 33  1  0  0  2
  4 34  1  0  0  2
  9 35  1  0  0  2
  9 36  1  0  0  2
 10 37  1  0  0  2
 12 38  1  0  0  2
 13 39  1  0  0  2
 14 40  1  0  0  2
 15 41  1  0  0  2
 16 42  1  0  0  2
 18 43  1  0  0  2
 22 44  1  0  0  2
 22 45  1  0  0  2
 24 46  1  0  0  2
M  END
> <MOLECULAR_FORMULA>
C14H20N6O5S

> <MOLECULAR_WEIGHT>
384.3

> <NUM_HB_ATOMS>
12 

> <NUM_ROTOR>
6  

> <XLOGP2>
-3.61

$$$$
