### 
### Created by X-TOOL on Fri Nov 18 13:18:14 2016
### 

@<TRIPOS>MOLECULE
1o0h_ligand
   39    41     1     0     0
SMALL
GAST_HUCK


@<TRIPOS>ATOM
      1 PB         36.3960    3.6770   13.0870 P.3       1 ADP         0.2069
      2 O1B        34.8920    3.6930   13.2380 O.co2     1 ADP        -0.5891
      3 O2B        36.8630    2.8290   11.9540 O.co2     1 ADP        -0.5891
      4 O3B        37.0960    3.4210   14.4010 O.co2     1 ADP        -0.5891
      5 PA         37.9000    6.2210   13.0920 P.3       1 ADP         0.3276
      6 O1A        38.0310    7.1920   11.9400 O.co2     1 ADP        -0.5556
      7 O2A        39.1520    5.4990   13.5040 O.co2     1 ADP        -0.5556
      8 O3A        36.7340    5.1870   12.6700 O.3       1 ADP        -0.1548
      9 O5         37.2930    7.0740   14.2970 O.3       1 ADP        -0.2436
     10 C5         36.8400    6.4500   15.4990 C.3       1 ADP         0.1132
     11 C4         36.7120    7.5500   16.5400 C.3       1 ADP         0.1189
     12 O4         35.9760    7.0030   17.6310 O.3       1 ADP        -0.3364
     13 C3         37.9990    8.0950   17.1610 C.3       1 ADP         0.1149
     14 O3         37.8500    9.4950   17.3490 O.3       1 ADP        -0.3864
     15 C2         38.0980    7.4020   18.5040 C.3       1 ADP         0.1385
     16 O2         38.8770    8.0660   19.4910 O.3       1 ADP        -0.3836
     17 C1         36.6210    7.3530   18.8410 C.3       1 ADP         0.2010
     18 N9         36.2750    6.3700   19.8890 N.pl3     1 ADP        -0.1919
     19 C8         35.4190    6.6700   20.9000 C.2       1 ADP         0.1123
     20 N7         35.2130    5.6310   21.7470 N.2       1 ADP        -0.2958
     21 C5         35.9970    4.6910   21.2370 C.ar      1 ADP         0.1045
     22 C6         36.2450    3.3380   21.6560 C.ar      1 ADP         0.1298
     23 N6         35.6560    2.8700   22.7770 N.pl3     1 ADP        -0.3152
     24 N1         37.0910    2.6100   20.9220 N.ar      1 ADP        -0.2698
     25 C2         37.6800    3.1030   19.8200 C.ar      1 ADP         0.0533
     26 N3         37.5120    4.3400   19.3410 N.ar      1 ADP        -0.2714
     27 C4         36.6900    5.1170   20.0300 C.ar      1 ADP         0.1613
     28 H1         37.5678    5.6955   15.8322 H         1 ADP         0.0648
     29 H2         35.8643    5.9700   15.3327 H         1 ADP         0.0648
     30 H3         36.1644    8.3883   16.0847 H         1 ADP         0.0651
     31 H4         38.8761    7.8798   16.5331 H         1 ADP         0.0648
     32 H5         37.6926    9.9111   16.5097 H         1 ADP         0.2100
     33 H6         38.5082    6.3885   18.3831 H         1 ADP         0.0676
     34 H7         38.5053    8.9233   19.6622 H         1 ADP         0.2101
     35 H8         36.2907    8.3480   19.1741 H         1 ADP         0.0996
     36 H9         34.9469    7.6442   21.0183 H         1 ADP         0.1349
     37 H10        35.8286    1.9020   23.0838 H         1 ADP         0.1820
     38 H11        35.0340    3.4809   23.3255 H         1 ADP         0.1820
     39 H12        38.3459    2.4442   19.2745 H         1 ADP         0.0996
@<TRIPOS>BOND
     1    1    2 ar 
     2    1    3 ar 
     3    1    4 ar 
     4    8    1 1  
     5    5    6 ar 
     6    5    7 ar 
     7    5    8 1  
     8    5    9 1  
     9    9   10 1  
    10   10   11 1  
    11   11   12 1  
    12   11   13 1  
    13   12   17 1  
    14   13   14 1  
    15   13   15 1  
    16   15   16 1  
    17   15   17 1  
    18   17   18 1  
    19   18   19 1  
    20   18   27 1  
    21   19   20 2  
    22   20   21 1  
    23   21   22 ar 
    24   21   27 ar 
    25   22   23 1  
    26   22   24 ar 
    27   24   25 ar 
    28   25   26 ar 
    29   26   27 ar 
    30   10   28 1  
    31   10   29 1  
    32   11   30 1  
    33   13   31 1  
    34   14   32 1  
    35   15   33 1  
    36   16   34 1  
    37   17   35 1  
    38   19   36 1  
    39   23   37 1  
    40   23   38 1  
    41   25   39 1  
@<TRIPOS>SUBSTRUCTURE
     1 ADP         1

