### 
### Created by X-TOOL on Fri Nov 18 15:31:36 2016
### 

@<TRIPOS>MOLECULE
3djx_ligand
   34    35     1     0     0
SMALL
GAST_HUCK


@<TRIPOS>ATOM
      1 O3P        30.2780   44.4680    6.9150 O.co2     1 C5P        -0.5537
      2 P          30.6270   44.0450    8.2880 P.3       1 C5P         0.2008
      3 O1P        32.0470   44.4880    8.5460 O.co2     1 C5P        -0.5537
      4 O2P        29.5690   44.4670    9.2930 O.co2     1 C5P        -0.5537
      5 O5'        30.6200   42.4180    8.3830 O.3       1 C5P        -0.2734
      6 C5'        30.8370   41.7730    9.6460 C.3       1 C5P         0.1071
      7 C4'        30.7870   40.2390    9.6050 C.3       1 C5P         0.1180
      8 O4'        29.6540   39.7590    8.8570 O.3       1 C5P        -0.3377
      9 C3'        32.0360   39.6140    8.9990 C.3       1 C5P         0.1147
     10 O3'        32.8850   39.0930   10.0230 O.3       1 C5P        -0.3864
     11 C2'        31.5320   38.4190    8.2310 C.3       1 C5P         0.1370
     12 O2'        31.5570   37.2970    9.1000 O.3       1 C5P        -0.3838
     13 C1'        30.0790   38.7310    7.9430 C.3       1 C5P         0.1988
     14 N1         29.8790   39.1710    6.5640 N.am      1 C5P        -0.1787
     15 C2         29.7560   38.2130    5.5380 C.2       1 C5P         0.3024
     16 N3         29.5500   38.5950    4.2640 N.am      1 C5P        -0.1994
     17 C4         29.4510   39.9020    3.9270 C.cat     1 C5P         0.2477
     18 C5         29.5610   40.8690    4.9160 C.2       1 C5P         0.0021
     19 C6         29.7730   40.4830    6.2350 C.2       1 C5P         0.0347
     20 O2         29.8730   37.0180    5.8190 O.2       1 C5P        -0.3877
     21 N4         29.2410   40.2600    2.6340 N.pl3     1 C5P        -0.2260
     22 H1         30.0628   42.1216   10.3453 H         1 C5P         0.0639
     23 H2         31.8282   42.0728   10.0171 H         1 C5P         0.0639
     24 H3         30.6948   39.8856   10.6426 H         1 C5P         0.0650
     25 H4         32.5747   40.3284    8.3592 H         1 C5P         0.0648
     26 H5         32.4156   38.4293   10.5147 H         1 C5P         0.2100
     27 H6         32.1120   38.2378    7.3141 H         1 C5P         0.0674
     28 H7         32.4473   37.1463    9.3952 H         1 C5P         0.2101
     29 H8         29.4791   37.8244    8.1111 H         1 C5P         0.0976
     30 H9         29.4684   37.8983    3.5513 H         1 C5P         0.1927
     31 H10        29.4817   41.9247    4.6606 H         1 C5P         0.0163
     32 H11        29.8548   41.2417    7.0120 H         1 C5P         0.0999
     33 H12        29.1661   41.2556    2.3809 H         1 C5P         0.4596
     34 H13        29.1566   39.5359    1.9063 H         1 C5P         0.4596
@<TRIPOS>BOND
     1    1    2 ar 
     2    2    3 ar 
     3    2    4 ar 
     4    2    5 1  
     5    5    6 1  
     6    6    7 1  
     7    7    8 1  
     8    7    9 1  
     9    8   13 1  
    10    9   10 1  
    11    9   11 1  
    12   11   12 1  
    13   11   13 1  
    14   13   14 1  
    15   14   15 am 
    16   14   19 1  
    17   15   16 am 
    18   15   20 2  
    19   16   17 ar 
    20   17   18 1  
    21   17   21 ar 
    22   18   19 2  
    23    6   22 1  
    24    6   23 1  
    25    7   24 1  
    26    9   25 1  
    27   10   26 1  
    28   11   27 1  
    29   12   28 1  
    30   13   29 1  
    31   16   30 1  
    32   18   31 1  
    33   19   32 1  
    34   21   33 1  
    35   21   34 1  
@<TRIPOS>SUBSTRUCTURE
     1 C5P         1

