### 
### Created by X-TOOL on Fri Nov 18 13:19:59 2016
### 

@<TRIPOS>MOLECULE
1m5w_ligand
   22    21     1     0     0
SMALL
GAST_HUCK


@<TRIPOS>ATOM
      1 C1         28.4280    0.8800   36.3340 C.3       1 DXP         0.0121
      2 C2         29.3490    0.8640   35.0910 C.2       1 DXP         0.1330
      3 C3         30.1260    2.0340   34.9090 C.3       1 DXP         0.1555
      4 C4         30.7120    2.9560   35.7270 C.3       1 DXP         0.1245
      5 C5         32.1430    2.5180   35.8320 C.3       1 DXP         0.1089
      6 O2         29.3820   -0.0770   34.3100 O.2       1 DXP        -0.3890
      7 O3         29.4470    2.7240   34.0760 O.3       1 DXP        -0.3698
      8 O4         30.8490    4.3520   35.3480 O.3       1 DXP        -0.3841
      9 O5         33.1620    3.4640   36.1130 O.3       1 DXP        -0.2733
     10 P          34.6060    3.1980   36.2560 P.3       1 DXP         0.2008
     11 O2P        35.2570    4.5790   36.5730 O.co2     1 DXP        -0.5537
     12 O1P        35.0110    2.5260   34.8630 O.co2     1 DXP        -0.5537
     13 O3P        34.6210    2.1850   37.5150 O.co2     1 DXP        -0.5537
     14 H1         27.8692   -0.0659   36.3884 H         1 DXP         0.0459
     15 H2         27.7213    1.7194   36.2560 H         1 DXP         0.0459
     16 H3         29.0386    0.9978   37.2413 H         1 DXP         0.0459
     17 H4         31.0014    1.6325   34.3775 H         1 DXP         0.0856
     18 H5         30.1988    2.9138   36.6990 H         1 DXP         0.0672
     19 H6         32.4020    2.0507   34.8705 H         1 DXP         0.0641
     20 H7         32.1846    1.7622   36.6301 H         1 DXP         0.0641
     21 H8         30.0289    3.3020   33.5967 H         1 DXP         0.2135
     22 H9         29.9867    4.7389   35.2515 H         1 DXP         0.2102
@<TRIPOS>BOND
     1    1    2 1  
     2    2    3 1  
     3    2    6 2  
     4    3    4 1  
     5    3    7 1  
     6    4    5 1  
     7    4    8 1  
     8    5    9 1  
     9    9   10 1  
    10   10   11 ar 
    11   10   12 ar 
    12   10   13 ar 
    13    1   14 1  
    14    1   15 1  
    15    1   16 1  
    16    3   17 1  
    17    4   18 1  
    18    5   19 1  
    19    5   20 1  
    20    7   21 1  
    21    8   22 1  
@<TRIPOS>SUBSTRUCTURE
     1 DXP         1

