### 
### Created by X-TOOL on Fri Nov 18 14:07:41 2016
### 

@<TRIPOS>MOLECULE
1xk5_ligand
   85    90     1     0     0
SMALL
GAST_HUCK


@<TRIPOS>ATOM
      1 OBB        13.3430   40.1650   11.7280 O.2       1 TPG        -0.3308
      2 CBF        13.1200   38.9600   11.8310 C.2       1 TPG         0.3089
      3 NBE        13.6600   38.2360   12.9030 N.am      1 TPG        -0.1401
      4 CBM        13.4020   36.8630   13.0070 C.2       1 TPG         0.3179
      5 NBV        13.9380   36.1460   13.9930 N.pl3     1 TPG        -0.2339
      6 CBZ        13.6700   34.7040   14.0940 C.3       1 TPG         0.0355
      7 CBW        14.8110   36.7870   14.9870 C.3       1 TPG         0.0355
      8 NBN        12.6360   36.2680   12.0800 N.2       1 TPG        -0.1478
      9 CBO        12.1050   36.9400   11.0450 C.2       1 TPG         0.2331
     10 CBG        12.3320   38.3060   10.8880 C.2       1 TPG         0.1910
     11 NBH        11.7960   38.7010    9.7360 N.2       1 TPG        -0.3076
     12 CBC        11.9410   40.0440    9.1310 C.3       1 TPG        -0.0039
     13 CBI        11.0180   37.6070    9.1420 C.2       1 TPG         0.1422
     14 NBP        11.4090   36.4840   10.0060 N.pl3     1 TPG        -0.1529
     15 CBQ        11.0640   35.0680    9.7380 C.3       1 TPG         0.2101
     16 OBR        12.1350   34.5230    8.9450 O.3       1 TPG        -0.3355
     17 CBX         9.7990   34.8770    8.8980 C.3       1 TPG         0.1397
     18 OCA         9.3360   33.5300    9.0290 O.3       1 TPG        -0.3835
     19 CBY        10.3630   35.1400    7.5050 C.3       1 TPG         0.1150
     20 OCB         9.4890   34.6000    6.5100 O.3       1 TPG        -0.3864
     21 CBS        11.6480   34.3210    7.6070 C.3       1 TPG         0.1189
     22 CBT        12.6650   34.7350    6.5430 C.3       1 TPG         0.1128
     23 OBU        12.0890   34.6110    5.2410 O.3       1 TPG        -0.2476
     24 PBK        12.6350   35.5190    4.0300 P.3       1 TPG         0.2978
     25 OBL        13.8730   36.3690    4.6130 O.co2     1 TPG        -0.6127
     26 OBJ        11.5770   36.4030    3.4920 O.co2     1 TPG        -0.6127
     27 OBD        13.2310   34.4950    2.9390 O.3       1 TPG        -0.1265
     28 PAZ        14.7940   34.1070    2.9330 P.3       1 TPG         0.3355
     29 OBA        15.1790   33.2050    1.6550 O.co2     1 TPG        -0.6079
     30 OAY        15.8070   34.8940    3.6710 O.co2     1 TPG        -0.6079
     31 OAX        14.6100   32.8540    3.9290 O.3       1 TPG        -0.1265
     32 PAT        15.8780   32.2120    4.6890 P.3       1 TPG         0.2978
     33 OAU        16.5000   30.9650    3.8800 O.co2     1 TPG        -0.6127
     34 OAS        16.6570   32.9620    5.6980 O.co2     1 TPG        -0.6127
     35 O5         14.9850   31.2810    5.6530 O.3       1 TPG        -0.2476
     36 C5         14.1580   31.8340    6.6820 C.3       1 TPG         0.1128
     37 C4         14.8540   31.8470    8.0450 C.3       1 TPG         0.1189
     38 O4         15.8770   32.8510    8.1530 O.3       1 TPG        -0.3363
     39 C3         13.8830   32.2430    9.1560 C.3       1 TPG         0.1150
     40 O3         13.0260   31.1370    9.4520 O.3       1 TPG        -0.3864
     41 C2         14.9080   32.4000   10.2760 C.3       1 TPG         0.1387
     42 O2         15.4030   31.1150   10.6620 O.3       1 TPG        -0.3836
     43 C1         16.0090   33.1790    9.5510 C.3       1 TPG         0.1992
     44 N9         15.8230   34.6400    9.7180 N.pl3     1 TPG        -0.2101
     45 C8         15.2740   35.4680    8.8320 C.2       1 TPG         0.0957
     46 N7         15.3520   36.7180    9.2830 N.2       1 TPG        -0.3235
     47 C5         15.9500   36.6890   10.4700 C.2       1 TPG         0.0926
     48 C4         16.2440   35.3600   10.7550 C.2       1 TPG         0.1159
     49 N3         16.8470   35.0200   11.9050 N.2       1 TPG        -0.2765
     50 C2         17.1930   35.9380   12.8200 C.2       1 TPG         0.2340
     51 N2         17.7780   35.5630   13.9540 N.pl3     1 TPG        -0.2807
     52 N1         16.9270   37.2930   12.5830 N.am      1 TPG        -0.1839
     53 C6         16.2980   37.6710   11.3900 C.2       1 TPG         0.2135
     54 O6         16.0790   38.8580   11.1530 O.2       1 TPG        -0.4091
     55 H1         14.2249   38.6959   13.5881 H         1 TPG         0.2760
     56 H2         14.1977   34.2933   14.9674 H         1 TPG         0.0518
     57 H3         14.0234   34.2006   13.1820 H         1 TPG         0.0518
     58 H4         12.5885   34.5392   14.2082 H         1 TPG         0.0518
     59 H5         14.8998   37.8596   14.7596 H         1 TPG         0.0518
     60 H6         15.8072   36.3216   14.9545 H         1 TPG         0.0518
     61 H7         14.3793   36.6596   15.9907 H         1 TPG         0.0518
     62 H8         11.3893   40.0792    8.1800 H         1 TPG         0.0360
     63 H9         13.0055   40.2495    8.9451 H         1 TPG         0.0360
     64 H10        11.5359   40.8014    9.8181 H         1 TPG         0.0360
     65 H11        10.3367   37.6231    8.2926 H         1 TPG         0.1610
     66 H12        10.9604   34.5297   10.6917 H         1 TPG         0.1009
     67 H13         9.0008   35.5850    9.1655 H         1 TPG         0.0677
     68 H14         8.5509   33.4140    8.5068 H         1 TPG         0.2101
     69 H15        10.5529   36.2065    7.3142 H         1 TPG         0.0648
     70 H16         8.6354   35.0103    6.5836 H         1 TPG         0.2100
     71 H17        11.4161   33.2555    7.4623 H         1 TPG         0.0651
     72 H18        13.5501   34.0856    6.6130 H         1 TPG         0.0648
     73 H19        12.9630   35.7804    6.7113 H         1 TPG         0.0648
     74 H20        13.2405   31.2323    6.7595 H         1 TPG         0.0648
     75 H21        13.8970   32.8670    6.4087 H         1 TPG         0.0648
     76 H22        15.2767   30.8491    8.2335 H         1 TPG         0.0651
     77 H23        13.3086   33.1568    8.9436 H         1 TPG         0.0648
     78 H24        12.4217   31.3821   10.1428 H         1 TPG         0.2100
     79 H25        14.5065   32.9426   11.1445 H         1 TPG         0.0676
     80 H26        14.6816   30.5779   10.9682 H         1 TPG         0.2101
     81 H27        16.9987   32.8837    9.9294 H         1 TPG         0.0998
     82 H28        14.8294   35.1688    7.8840 H         1 TPG         0.1179
     83 H29        17.9733   34.5667   14.1278 H         1 TPG         0.1897
     84 H30        18.0357   36.2688   14.6585 H         1 TPG         0.1897
     85 H31        17.1838   37.9836   13.2591 H         1 TPG         0.2515
@<TRIPOS>BOND
     1    1    2 2  
     2    2    3 am 
     3    2   10 1  
     4    3    4 am 
     5    4    5 1  
     6    4    8 2  
     7    5    6 1  
     8    5    7 1  
     9    8    9 1  
    10    9   10 2  
    11    9   14 1  
    12   10   11 1  
    13   11   12 1  
    14   11   13 2  
    15   13   14 1  
    16   14   15 1  
    17   15   16 1  
    18   15   17 1  
    19   16   21 1  
    20   17   18 1  
    21   17   19 1  
    22   19   20 1  
    23   19   21 1  
    24   21   22 1  
    25   22   23 1  
    26   23   24 1  
    27   24   25 ar 
    28   24   26 ar 
    29   24   27 1  
    30   27   28 1  
    31   28   29 ar 
    32   28   30 ar 
    33   28   31 1  
    34   31   32 1  
    35   32   33 ar 
    36   32   34 ar 
    37   32   35 1  
    38   35   36 1  
    39   36   37 1  
    40   37   38 1  
    41   37   39 1  
    42   38   43 1  
    43   39   40 1  
    44   39   41 1  
    45   41   42 1  
    46   41   43 1  
    47   43   44 1  
    48   44   45 1  
    49   44   48 1  
    50   45   46 2  
    51   46   47 1  
    52   47   48 2  
    53   47   53 1  
    54   48   49 1  
    55   49   50 2  
    56   50   51 1  
    57   50   52 am 
    58   52   53 am 
    59   53   54 2  
    60    3   55 1  
    61    6   56 1  
    62    6   57 1  
    63    6   58 1  
    64    7   59 1  
    65    7   60 1  
    66    7   61 1  
    67   12   62 1  
    68   12   63 1  
    69   12   64 1  
    70   13   65 1  
    71   15   66 1  
    72   17   67 1  
    73   18   68 1  
    74   19   69 1  
    75   20   70 1  
    76   21   71 1  
    77   22   72 1  
    78   22   73 1  
    79   36   74 1  
    80   36   75 1  
    81   37   76 1  
    82   39   77 1  
    83   40   78 1  
    84   41   79 1  
    85   42   80 1  
    86   43   81 1  
    87   45   82 1  
    88   51   83 1  
    89   51   84 1  
    90   52   85 1  
@<TRIPOS>SUBSTRUCTURE
     1 TPG         1

