### 
### Created by X-TOOL on Wed Dec 13 14:18:34 2017
### 

@<TRIPOS>MOLECULE
5f2r_ligand
   45    47     1     0     0
SMALL
GAST_HUCK


@<TRIPOS>ATOM
      1 PG         19.7520    3.1920    2.3630 P.3       1 ACP         0.0781
      2 O1G        18.6550    2.9540    1.3620 O.co2     1 ACP        -0.5611
      3 O2G        21.1470    3.2550    1.7380 O.co2     1 ACP        -0.5611
      4 O3G        19.5690    4.3080    3.3820 O.co2     1 ACP        -0.5611
      5 PB         20.2380    0.1500    2.6160 P.3       1 ACP         0.1787
      6 O1B        19.9080    0.1540    1.1350 O.co2     1 ACP        -0.6143
      7 O2B        21.6900   -0.0960    2.9180 O.co2     1 ACP        -0.6143
      8 C3B        19.6380    1.6850    3.4030 C.3       1 ACP         0.1130
      9 PA         18.7610   -2.2880    2.5140 P.3       1 ACP         0.2952
     10 O1A        17.6950   -1.7830    1.6070 O.co2     1 ACP        -0.6125
     11 O2A        20.0030   -2.9090    1.9030 O.co2     1 ACP        -0.6125
     12 O3A        19.3110   -0.9910    3.2830 O.3       1 ACP        -0.1584
     13 O5'        18.1780   -3.0930    3.7540 O.3       1 ACP        -0.2475
     14 C5'        18.9510   -3.8230    4.6920 C.3       1 ACP         0.1128
     15 C4'        17.9260   -4.4320    5.6350 C.3       1 ACP         0.1189
     16 O4'        17.1810   -5.4130    4.9020 O.3       1 ACP        -0.3364
     17 C3'        18.5450   -5.1570    6.8460 C.3       1 ACP         0.1149
     18 O3'        17.8690   -4.8120    8.0190 O.3       1 ACP        -0.3864
     19 C2'        18.2840   -6.6150    6.5870 C.3       1 ACP         0.1385
     20 O2'        18.2310   -7.3800    7.7950 O.3       1 ACP        -0.3836
     21 C1'        16.9570   -6.4700    5.8260 C.3       1 ACP         0.2010
     22 N9         16.6470   -7.6430    5.0570 N.pl3     1 ACP        -0.1919
     23 C8         17.3820   -8.2060    4.0600 C.2       1 ACP         0.1123
     24 N7         16.7580   -9.3090    3.6210 N.2       1 ACP        -0.2958
     25 C5         15.5990   -9.4430    4.3230 C.ar      1 ACP         0.1045
     26 C6         14.5380  -10.3830    4.3350 C.ar      1 ACP         0.1298
     27 N6         14.4570  -11.4580    3.4970 N.pl3     1 ACP        -0.3152
     28 N1         13.5260  -10.1820    5.2310 N.ar      1 ACP        -0.2698
     29 C2         13.5440   -9.1250    6.0820 C.ar      1 ACP         0.0533
     30 N3         14.5170   -8.2220    6.1310 N.ar      1 ACP        -0.2714
     31 C4         15.5470   -8.3870    5.2490 C.ar      1 ACP         0.1613
     32 H1         18.5823    1.5380    3.6746 H         1 ACP         0.0680
     33 H2         20.2308    1.8545    4.3140 H         1 ACP         0.0680
     34 H3         19.6333   -3.1549    5.2379 H         1 ACP         0.0648
     35 H4         19.5325   -4.6096    4.1889 H         1 ACP         0.0648
     36 H5         17.2576   -3.6362    5.9956 H         1 ACP         0.0651
     37 H6         19.6197   -4.9406    6.9365 H         1 ACP         0.0648
     38 H7         18.2620   -5.2664    8.7550 H         1 ACP         0.2100
     39 H8         19.0575   -7.0539    5.9397 H         1 ACP         0.0676
     40 H9         19.0604   -7.3057    8.2522 H         1 ACP         0.2101
     41 H10        16.1341   -6.2390    6.5184 H         1 ACP         0.0996
     42 H11        18.3271   -7.8219    3.6789 H         1 ACP         0.1349
     43 H12        13.6556  -12.1019    3.5613 H         1 ACP         0.1820
     44 H13        15.1973  -11.6250    2.8006 H         1 ACP         0.1820
     45 H14        12.7107   -9.0102    6.7658 H         1 ACP         0.0996
@<TRIPOS>BOND
     1    1    2 ar 
     2    1    3 ar 
     3    1    4 ar 
     4    8    1 1  
     5    5    6 ar 
     6    5    7 ar 
     7    5    8 1  
     8   12    5 1  
     9    9   10 ar 
    10    9   11 ar 
    11    9   12 1  
    12    9   13 1  
    13   13   14 1  
    14   14   15 1  
    15   15   16 1  
    16   15   17 1  
    17   16   21 1  
    18   17   18 1  
    19   17   19 1  
    20   19   20 1  
    21   19   21 1  
    22   21   22 1  
    23   22   23 1  
    24   22   31 1  
    25   23   24 2  
    26   24   25 1  
    27   25   26 ar 
    28   25   31 ar 
    29   26   27 1  
    30   26   28 ar 
    31   28   29 ar 
    32   29   30 ar 
    33   30   31 ar 
    34    8   32 1  
    35    8   33 1  
    36   14   34 1  
    37   14   35 1  
    38   15   36 1  
    39   17   37 1  
    40   18   38 1  
    41   19   39 1  
    42   20   40 1  
    43   21   41 1  
    44   23   42 1  
    45   27   43 1  
    46   27   44 1  
    47   29   45 1  
@<TRIPOS>SUBSTRUCTURE
     1 ACP         1

