### 
### Created by X-TOOL on Fri Nov 18 16:29:45 2016
### 

@<TRIPOS>MOLECULE
3o75_ligand
   27    27     1     0     0
SMALL
GAST_HUCK


@<TRIPOS>ATOM
      1 C1         -0.8220    4.1160    4.3120 C.3       1 F1X         0.1347
      2 O1         -1.1880    3.6710    3.0150 O.3       1 F1X        -0.2706
      3 P1         -0.7150    4.5260    1.7380 P.3       1 F1X         0.2009
      4 C2         -2.0280    4.7660    4.9670 C.3       1 F1X         0.2253
      5 O2         -2.7270    5.5740    4.0110 O.3       1 F1X        -0.3606
      6 C3         -1.5940    5.6210    6.1490 C.3       1 F1X         0.1395
      7 O3         -1.1390    6.9090    5.7410 O.3       1 F1X        -0.3837
      8 C4         -2.8640    5.6650    6.9610 C.3       1 F1X         0.1145
      9 O4         -2.6680    6.0550    8.3230 O.3       1 F1X        -0.3864
     10 C5         -3.2400    4.2010    6.8430 C.3       1 F1X         0.1134
     11 O5         -2.9360    3.8020    5.5010 O.3       1 F1X        -0.3362
     12 C6         -4.6840    3.9860    7.2240 C.3       1 F1X         0.0730
     13 O6         -4.6470    3.7460    8.6250 O.3       1 F1X        -0.3924
     14 O1P        -1.3060    5.8940    1.9590 O.co2     1 F1X        -0.5537
     15 O2P         0.7880    4.4910    1.8050 O.co2     1 F1X        -0.5537
     16 O3P        -1.3190    3.7870    0.5700 O.co2     1 F1X        -0.5537
     17 H1         -0.0046    4.8480    4.2344 H         1 F1X         0.0667
     18 H2         -0.4905    3.2590    4.9167 H         1 F1X         0.0667
     19 H3         -2.1320    6.2199    3.6486 H         1 F1X         0.2129
     20 H4         -0.7891    5.1290    6.7147 H         1 F1X         0.0675
     21 H5         -0.8787    7.4086    6.5059 H         1 F1X         0.2101
     22 H6         -3.6163    6.3246    6.5038 H         1 F1X         0.0648
     23 H7         -2.0838    5.4376    8.7471 H         1 F1X         0.2100
     24 H8         -2.6185    3.6119    7.5334 H         1 F1X         0.0647
     25 H9         -5.1024    3.1193    6.6914 H         1 F1X         0.0584
     26 H10        -5.2837    4.8799    6.9978 H         1 F1X         0.0584
     27 H11        -4.1149    2.9787    8.7998 H         1 F1X         0.2095
@<TRIPOS>BOND
     1    1    2 1  
     2    1    4 1  
     3    2    3 1  
     4    3   14 ar 
     5    3   15 ar 
     6    3   16 ar 
     7    4    5 1  
     8    4    6 1  
     9    4   11 1  
    10    6    7 1  
    11    6    8 1  
    12    8    9 1  
    13    8   10 1  
    14   10   11 1  
    15   10   12 1  
    16   12   13 1  
    17    1   17 1  
    18    1   18 1  
    19    5   19 1  
    20    6   20 1  
    21    7   21 1  
    22    8   22 1  
    23    9   23 1  
    24   10   24 1  
    25   12   25 1  
    26   12   26 1  
    27   13   27 1  
@<TRIPOS>SUBSTRUCTURE
     1 F1X         1

