### 
### Created by X-TOOL on Fri Nov 18 12:55:15 2016
### 

@<TRIPOS>MOLECULE
1gvw_ligand
   96    97     1     0     0
SMALL
GAST_HUCK


@<TRIPOS>ATOM
      1 O1          1.5530   27.3940   20.2800 O.2       1 MOL        -0.3774
      2 C           2.3520   26.5920   19.7950 C.2       1 MOL         0.3224
      3 O2          2.1280   25.1820   19.8390 O.3       1 MOL        -0.2580
      4 CT          1.0100   24.5180   20.4580 C.3       1 MOL         0.0905
      5 C1          0.9900   24.7250   21.9700 C.3       1 MOL        -0.0320
      6 C2          1.2510   23.0180   20.2280 C.3       1 MOL        -0.0320
      7 C3         -0.2510   24.9630   19.7170 C.3       1 MOL        -0.0320
      8 N           3.5200   26.8240   19.1780 N.am      1 MOL        -0.2394
      9 CA          3.9840   28.2080   18.8460 C.3       1 MOL         0.1423
     10 C           3.1090   28.7590   17.6920 C.2       1 MOL         0.2060
     11 O           2.8090   27.9390   16.7710 O.2       1 MOL        -0.3942
     12 CB          5.4640   28.2240   18.5110 C.3       1 MOL         0.0214
     13 CG          6.5420   28.0500   19.5410 C.ar      1 MOL        -0.0386
     14 CD1         6.6930   26.8970   20.3010 C.ar      1 MOL        -0.0601
     15 CD2         7.4930   29.0520   19.7780 C.ar      1 MOL        -0.0601
     16 CE1         7.6800   26.7200   21.2360 C.ar      1 MOL        -0.0686
     17 CE2         8.4650   28.8950   20.7450 C.ar      1 MOL        -0.0686
     18 CZ          8.5790   27.7350   21.4930 C.ar      1 MOL        -0.0687
     19 N           2.7830   30.0750   17.7310 N.am      1 MOL        -0.2618
     20 CA          2.1250   30.7490   16.5920 C.3       1 MOL         0.1420
     21 C           2.8970   32.0560   16.3470 C.2       1 MOL         0.2052
     22 O           2.4620   33.0960   16.8710 O.2       1 MOL        -0.3943
     23 CB          0.6450   31.0910   16.7390 C.3       1 MOL         0.0427
     24 CG         -0.0190   31.7110   15.5380 C.2       1 MOL         0.0561
     25 ND1        -1.3170   32.2810   15.5690 N.pl3     1 MOL        -0.2623
     26 CD2         0.3820   31.8430   14.2450 C.2       1 MOL        -0.0276
     27 CE1        -1.6400   32.7380   14.3650 C.2       1 MOL         0.0875
     28 NE2        -0.6090   32.4860   13.5360 N.2       1 MOL        -0.3437
     29 N           3.9680   32.0010   15.5460 N.am      1 MOL        -0.2660
     30 CA          4.8820   33.0780   15.2090 C.3       1 MOL         0.1086
     31 CB          6.3350   32.9230   15.7760 C.3       1 MOL        -0.0108
     32 CG          6.4840   32.5500   17.2740 C.3       1 MOL        -0.0431
     33 CD1         7.9850   32.3040   17.5850 C.3       1 MOL        -0.0625
     34 CD2         5.8460   33.5500   18.2210 C.3       1 MOL        -0.0625
     35 P           4.8910   33.4070   13.4150 P.3       1 MOL         0.0300
     36 O1P         5.1300   32.1100   12.7550 O.co2     1 MOL        -0.6161
     37 O2P         5.9260   34.4770   13.0940 O.co2     1 MOL        -0.6161
     38 CM          3.3150   34.1150   12.9120 C.3       1 MOL         0.1041
     39 C           3.1360   35.5610   13.3240 C.2       1 MOL         0.1937
     40 O           2.6010   35.7980   14.4070 O.2       1 MOL        -0.3953
     41 N           3.5830   36.5370   12.4910 N.am      1 MOL        -0.2854
     42 CA          3.6210   37.9040   12.9790 C.3       1 MOL         0.0335
     43 CB          3.7910   38.9920   11.9560 C.3       1 MOL        -0.0239
     44 CG1         3.9970   40.3750   12.5990 C.3       1 MOL        -0.0515
     45 CG2         2.5770   38.9860   11.0550 C.3       1 MOL        -0.0606
     46 CD1         4.7160   41.2880   11.6660 C.3       1 MOL        -0.0650
     47 H1          0.1228   24.2026   22.4001 H         1 MOL         0.0260
     48 H2          0.9177   25.7999   22.1920 H         1 MOL         0.0260
     49 H3          1.9151   24.3216   22.4076 H         1 MOL         0.0260
     50 H4          0.4292   22.4414   20.6778 H         1 MOL         0.0260
     51 H5          2.2031   22.7239   20.6939 H         1 MOL         0.0260
     52 H6          1.2931   22.8148   19.1478 H         1 MOL         0.0260
     53 H7         -1.1299   24.4746   20.1631 H         1 MOL         0.0260
     54 H8         -0.1727   24.6797   18.6570 H         1 MOL         0.0260
     55 H9         -0.3578   26.0548   19.7978 H         1 MOL         0.0260
     56 H10         4.0997   26.0473   18.9317 H         1 MOL         0.1901
     57 H11         3.8332   28.8477   19.7280 H         1 MOL         0.0823
     58 H12         5.6554   29.1970   18.0349 H         1 MOL         0.0474
     59 H13         5.6160   27.4199   17.7760 H         1 MOL         0.0474
     60 H14         5.9879   26.0885   20.1454 H         1 MOL         0.0557
     61 H15         7.4646   29.9641   19.1929 H         1 MOL         0.0557
     62 H16         7.7543   25.7818   21.7739 H         1 MOL         0.0599
     63 H17         9.1617   29.7057   20.9249 H         1 MOL         0.0599
     64 H18         9.3457   27.6283   22.2519 H         1 MOL         0.0559
     65 H19         2.9937   30.6039   18.5531 H         1 MOL         0.1885
     66 H20         2.2246   30.0935   15.7143 H         1 MOL         0.0824
     67 H21         0.5455   31.7956   17.5779 H         1 MOL         0.0491
     68 H22         0.1079   30.1607   16.9758 H         1 MOL         0.0491
     69 H23        -1.9201   32.3328   16.4024 H         1 MOL         0.2386
     70 H24         1.3307   31.4972   13.8371 H         1 MOL         0.0324
     71 H25        -2.5736   33.2297   14.0955 H         1 MOL         0.1149
     72 H26         4.1618   31.1125   15.1301 H         1 MOL         0.1870
     73 H27         4.4707   33.9787   15.6882 H         1 MOL         0.0766
     74 H28         6.8525   33.8814   15.6223 H         1 MOL         0.0306
     75 H29         6.8352   32.1380   15.1899 H         1 MOL         0.0306
     76 H30         5.9562   31.5969   17.4256 H         1 MOL         0.0297
     77 H31         8.1008   32.0386   18.6462 H         1 MOL         0.0232
     78 H32         8.5584   33.2180   17.3710 H         1 MOL         0.0232
     79 H33         8.3593   31.4811   16.9583 H         1 MOL         0.0232
     80 H34         4.7873   33.6839   17.9540 H         1 MOL         0.0232
     81 H35         6.3688   34.5146   18.1424 H         1 MOL         0.0232
     82 H36         5.9194   33.1762   19.2529 H         1 MOL         0.0232
     83 H37         2.5075   33.5223   13.3666 H         1 MOL         0.0707
     84 H38         3.2417   34.0550   11.8161 H         1 MOL         0.0707
     85 H39         3.8796   36.3184   11.5613 H         1 MOL         0.1851
     86 H40         4.4601   37.9802   13.6862 H         1 MOL         0.0522
     87 H41         2.6761   38.0928   13.5095 H         1 MOL         0.0522
     88 H42         4.6810   38.7650   11.3508 H         1 MOL         0.0317
     89 H43         4.5882   40.2608   13.5195 H         1 MOL         0.0266
     90 H44         3.0164   40.8088   12.8445 H         1 MOL         0.0266
     91 H45         2.4552   37.9872   10.6106 H         1 MOL         0.0233
     92 H46         2.7102   39.7294   10.2552 H         1 MOL         0.0233
     93 H47         1.6823   39.2370   11.6436 H         1 MOL         0.0233
     94 H48         4.8522   42.2688   12.1451 H         1 MOL         0.0230
     95 H49         4.1273   41.4086   10.7446 H         1 MOL         0.0230
     96 H50         5.6992   40.8606   11.4197 H         1 MOL         0.0230
@<TRIPOS>BOND
     1    2    1 2  
     2    2    3 1  
     3    3    4 1  
     4    4    7 1  
     5    4    6 1  
     6    4    5 1  
     7   10    9 1  
     8    9   12 1  
     9    9    8 1  
    10   12   13 1  
    11   13   15 ar 
    12   13   14 ar 
    13   14   16 ar 
    14   16   18 ar 
    15   17   18 ar 
    16   15   17 ar 
    17   10   11 2  
    18   21   20 1  
    19   20   23 1  
    20   20   19 1  
    21   23   24 1  
    22   24   26 2  
    23   24   25 1  
    24   25   27 1  
    25   27   28 2  
    26   26   28 1  
    27   21   22 2  
    28   30   29 1  
    29   35   30 1  
    30   30   31 1  
    31   31   32 1  
    32   32   34 1  
    33   32   33 1  
    34   38   35 1  
    35   35   37 ar 
    36   35   36 ar 
    37   39   38 1  
    38   39   40 2  
    39   41   42 1  
    40   42   43 1  
    41   43   45 1  
    42   43   44 1  
    43   44   46 1  
    44   19   10 am 
    45    8    2 am 
    46   29   21 am 
    47   39   41 am 
    48    5   47 1  
    49    5   48 1  
    50    5   49 1  
    51    6   50 1  
    52    6   51 1  
    53    6   52 1  
    54    7   53 1  
    55    7   54 1  
    56    7   55 1  
    57    8   56 1  
    58    9   57 1  
    59   12   58 1  
    60   12   59 1  
    61   14   60 1  
    62   15   61 1  
    63   16   62 1  
    64   17   63 1  
    65   18   64 1  
    66   19   65 1  
    67   20   66 1  
    68   23   67 1  
    69   23   68 1  
    70   25   69 1  
    71   26   70 1  
    72   27   71 1  
    73   29   72 1  
    74   30   73 1  
    75   31   74 1  
    76   31   75 1  
    77   32   76 1  
    78   33   77 1  
    79   33   78 1  
    80   33   79 1  
    81   34   80 1  
    82   34   81 1  
    83   34   82 1  
    84   38   83 1  
    85   38   84 1  
    86   41   85 1  
    87   42   86 1  
    88   42   87 1  
    89   43   88 1  
    90   44   89 1  
    91   44   90 1  
    92   45   91 1  
    93   45   92 1  
    94   45   93 1  
    95   46   94 1  
    96   46   95 1  
    97   46   96 1  
@<TRIPOS>SUBSTRUCTURE
     1 MOL         1

