### 
### Created by X-TOOL on Fri Nov 18 15:06:54 2016
### 

@<TRIPOS>MOLECULE
2r59_ligand
   65    67     1     0     0
SMALL
GAST_HUCK


@<TRIPOS>ATOM
      1 O1         34.1440    4.2310    3.4590 O.co2     1 PH0        -0.6153
      2 C1         32.6740    2.7490    1.1120 C.3       1 PH0         0.0407
      3 C2         31.9250    1.9930    0.0510 C.ar      1 PH0        -0.0360
      4 C3         32.3780    1.8490   -1.2850 C.ar      1 PH0        -0.0601
      5 C4         31.5450    1.1220   -2.1550 C.ar      1 PH0        -0.0686
      6 C5         30.3210    0.5870   -1.7880 C.ar      1 PH0        -0.0687
      7 C6         29.9130    0.7030   -0.4840 C.ar      1 PH0        -0.0686
      8 C7         30.7050    1.4180    0.4100 C.ar      1 PH0        -0.0601
      9 C8         34.1590    2.4400    1.2800 C.3       1 PH0         0.0466
     10 C9         34.7870    5.2380    0.9710 C.3       1 PH0         0.0402
     11 C10        34.7330    6.6000    1.6800 C.3       1 PH0         0.0742
     12 C11        34.4690    7.6510    0.6400 C.2       1 PH0         0.1844
     13 C12        33.2120    9.5880   -0.1850 C.3       1 PH0         0.1038
     14 C13        32.3020   10.6700    0.3840 C.3       1 PH0         0.0159
     15 C14        31.2240   10.0200    1.2170 C.ar      1 PH0        -0.0392
     16 C15        31.4400    9.7600    2.5910 C.ar      1 PH0        -0.0602
     17 C16        30.4200    9.1780    3.3160 C.ar      1 PH0        -0.0686
     18 C17        29.2220    8.8370    2.7010 C.ar      1 PH0        -0.0687
     19 C18        29.0160    9.1080    1.3620 C.ar      1 PH0        -0.0686
     20 C19        30.0230    9.7010    0.6330 C.ar      1 PH0        -0.0602
     21 C20        34.4680   10.2700   -0.6650 C.2       1 PH0         0.0621
     22 P          34.9270    3.8450    2.1750 P.3       1 PH0         0.0403
     23 O5         36.5450    3.4940    2.5240 O.co2     1 PH0        -0.6153
     24 N2         34.3010    1.2490    2.1560 N.4       1 PH0         0.2351
     25 C21        36.1120    6.8800    2.2820 C.3       1 PH0         0.0021
     26 C22        36.0560    8.0130    3.3080 C.ar      1 PH0        -0.0405
     27 C23        37.1910    8.7810    3.5430 C.ar      1 PH0        -0.0602
     28 C24        37.2030    9.8470    4.4590 C.ar      1 PH0        -0.0686
     29 C25        36.0480   10.1100    5.1790 C.ar      1 PH0        -0.0687
     30 C26        34.9070    9.3190    5.0060 C.ar      1 PH0        -0.0686
     31 C27        34.9040    8.2690    4.0700 C.ar      1 PH0        -0.0602
     32 O2         35.1500    7.6490   -0.3360 O.2       1 PH0        -0.3964
     33 N1         33.4920    8.5280    0.7690 N.am      1 PH0        -0.2692
     34 O3         35.4190   10.5980    0.1270 O.co2     1 PH0        -0.5664
     35 O4         34.5220   10.4430   -1.8970 O.co2     1 PH0        -0.5664
     36 H1         32.1830    2.5407    2.0741 H         1 PH0         0.0499
     37 H2         32.5845    3.8203    0.8789 H         1 PH0         0.0499
     38 H3         33.3167    2.2766   -1.6184 H         1 PH0         0.0557
     39 H4         31.8814    0.9713   -3.1744 H         1 PH0         0.0599
     40 H5         29.6968    0.0855   -2.5187 H         1 PH0         0.0559
     41 H6         28.9876    0.2448   -0.1543 H         1 PH0         0.0599
     42 H7         30.3587    1.5334    1.4307 H         1 PH0         0.0557
     43 H8         34.6395    2.2755    0.3043 H         1 PH0         0.1089
     44 H9         35.6595    5.2192    0.3014 H         1 PH0         0.0496
     45 H10        33.8684    5.1072    0.3801 H         1 PH0         0.0496
     46 H11        33.9545    6.6084    2.4571 H         1 PH0         0.0576
     47 H12        32.7097    9.1297   -1.0497 H         1 PH0         0.0749
     48 H13        31.8409   11.2345   -0.4399 H         1 PH0         0.0467
     49 H14        32.8911   11.3540    1.0125 H         1 PH0         0.0467
     50 H15        32.3831   10.0117    3.0624 H         1 PH0         0.0557
     51 H16        30.5548    8.9854    4.3742 H         1 PH0         0.0599
     52 H17        28.4413    8.3537    3.2772 H         1 PH0         0.0559
     53 H18        28.0727    8.8568    0.8906 H         1 PH0         0.0599
     54 H19        29.8650    9.9190   -0.4170 H         1 PH0         0.0557
     55 H20        33.8907    0.4476    1.7026 H         1 PH0         0.2014
     56 H21        33.8302    1.4175    3.0312 H         1 PH0         0.2014
     57 H22        35.2785    1.0734    2.3286 H         1 PH0         0.2014
     58 H23        36.8038    7.1626    1.4748 H         1 PH0         0.0454
     59 H24        36.4782    5.9681    2.7762 H         1 PH0         0.0454
     60 H25        38.1000    8.5491    2.9998 H         1 PH0         0.0557
     61 H26        38.0937   10.4488    4.5990 H         1 PH0         0.0599
     62 H27        36.0287   10.9352    5.8817 H         1 PH0         0.0559
     63 H28        34.0199    9.5165    5.5969 H         1 PH0         0.0599
     64 H29        34.0169    7.6603    3.9373 H         1 PH0         0.0557
     65 H30        32.9056    8.4589    1.5761 H         1 PH0         0.1876
@<TRIPOS>BOND
     1   22    1 ar 
     2    2    3 1  
     3    9    2 1  
     4    3    4 ar 
     5    3    8 ar 
     6    4    5 ar 
     7    5    6 ar 
     8    7    6 ar 
     9    8    7 ar 
    10   22    9 1  
    11    9   24 1  
    12   11   10 1  
    13   10   22 1  
    14   12   11 1  
    15   11   25 1  
    16   12   32 2  
    17   33   12 am 
    18   13   14 1  
    19   13   21 1  
    20   13   33 1  
    21   14   15 1  
    22   15   16 ar 
    23   15   20 ar 
    24   16   17 ar 
    25   17   18 ar 
    26   18   19 ar 
    27   19   20 ar 
    28   21   34 ar 
    29   21   35 ar 
    30   22   23 ar 
    31   25   26 1  
    32   26   27 ar 
    33   26   31 ar 
    34   27   28 ar 
    35   28   29 ar 
    36   29   30 ar 
    37   30   31 ar 
    38    2   36 1  
    39    2   37 1  
    40    4   38 1  
    41    5   39 1  
    42    6   40 1  
    43    7   41 1  
    44    8   42 1  
    45    9   43 1  
    46   10   44 1  
    47   10   45 1  
    48   11   46 1  
    49   13   47 1  
    50   14   48 1  
    51   14   49 1  
    52   16   50 1  
    53   17   51 1  
    54   18   52 1  
    55   19   53 1  
    56   20   54 1  
    57   24   55 1  
    58   24   56 1  
    59   24   57 1  
    60   25   58 1  
    61   25   59 1  
    62   27   60 1  
    63   28   61 1  
    64   29   62 1  
    65   30   63 1  
    66   31   64 1  
    67   33   65 1  
@<TRIPOS>SUBSTRUCTURE
     1 PH0         1

