### 
### Created by X-TOOL on Fri Nov 18 17:58:59 2016
### 

@<TRIPOS>MOLECULE
4u70_ligand
   30    30     1     0     0
SMALL
GAST_HUCK


@<TRIPOS>ATOM
      1 O          20.5450   -3.0990   11.4820 O.co2     1 Q04        -0.5586
      2 P          21.9050   -2.5740   11.3950 P.3       1 Q04         0.1102
      3 O1         22.5600   -2.1420   12.7660 O.co2     1 Q04        -0.5586
      4 O2         21.9010   -1.2670   10.4750 O.co2     1 Q04        -0.5586
      5 C          23.0560   -3.6050   10.5720 C.3       1 Q04         0.0444
      6 N          24.1810   -2.9310   10.0350 N.4       1 Q04         0.2328
      7 C1         23.4780   -4.6950   11.5730 C.3       1 Q04         0.0088
      8 C2         23.8740   -6.0470   11.0400 C.3       1 Q04        -0.0345
      9 C7         24.4610   -6.6090   12.3460 C.3       1 Q04        -0.0500
     10 C6         25.4390   -7.6230   11.7560 C.3       1 Q04        -0.0528
     11 C5         24.6210   -8.7840   11.2020 C.3       1 Q04        -0.0530
     12 C4         23.6640   -8.3580   10.1370 C.3       1 Q04        -0.0528
     13 C3         22.9080   -7.0740   10.5700 C.3       1 Q04        -0.0500
     14 H1         22.5367   -4.0855    9.7297 H         1 Q04         0.1049
     15 H2         24.7871   -3.5970    9.5821 H         1 Q04         0.2011
     16 H3         24.6832   -2.4708   10.7780 H         1 Q04         0.2011
     17 H4         23.8730   -2.2458    9.3629 H         1 Q04         0.2011
     18 H5         22.6319   -4.8515   12.2583 H         1 Q04         0.0338
     19 H6         24.3382   -4.3034   12.1358 H         1 Q04         0.0338
     20 H7         24.6277   -5.9137   10.2499 H         1 Q04         0.0303
     21 H8         23.6932   -7.0915   12.9685 H         1 Q04         0.0268
     22 H9         24.9755   -5.8342   12.9332 H         1 Q04         0.0268
     23 H10        26.1216   -7.9851   12.5389 H         1 Q04         0.0265
     24 H11        26.0219   -7.1559   10.9485 H         1 Q04         0.0265
     25 H12        24.0512   -9.2380   12.0261 H         1 Q04         0.0265
     26 H13        25.3100   -9.5295   10.7783 H         1 Q04         0.0265
     27 H14        22.9369   -9.1641    9.9598 H         1 Q04         0.0265
     28 H15        24.2203   -8.1556    9.2099 H         1 Q04         0.0265
     29 H16        22.3436   -6.6776    9.7131 H         1 Q04         0.0268
     30 H17        22.2119   -7.3192   11.3857 H         1 Q04         0.0268
@<TRIPOS>BOND
     1    1    2 ar 
     2    2    3 ar 
     3    2    4 ar 
     4    2    5 1  
     5    5    6 1  
     6    5    7 1  
     7    7    8 1  
     8    8    9 1  
     9    8   13 1  
    10    9   10 1  
    11   10   11 1  
    12   11   12 1  
    13   12   13 1  
    14    5   14 1  
    15    6   15 1  
    16    6   16 1  
    17    6   17 1  
    18    7   18 1  
    19    7   19 1  
    20    8   20 1  
    21    9   21 1  
    22    9   22 1  
    23   10   23 1  
    24   10   24 1  
    25   11   25 1  
    26   11   26 1  
    27   12   27 1  
    28   12   28 1  
    29   13   29 1  
    30   13   30 1  
@<TRIPOS>SUBSTRUCTURE
     1 Q04         1

