### 
### Created by X-TOOL on Fri Nov 18 13:04:14 2016
### 

@<TRIPOS>MOLECULE
1jcx_ligand
   42    41     1     0     0
SMALL
GAST_HUCK


@<TRIPOS>ATOM
      1 P1         39.5660   55.8050   15.4410 P.3       1 PAI         0.2008
      2 O1P        39.6840   57.2810   15.3430 O.co2     1 PAI        -0.5537
      3 O2P        40.7160   55.1510   16.1060 O.co2     1 PAI        -0.5537
      4 O3P        38.3500   55.6480   16.4610 O.3       1 PAI        -0.2734
      5 O4P        39.2660   55.1660   14.1350 O.co2     1 PAI        -0.5537
      6 C6         37.1970   54.8200   16.3180 C.3       1 PAI         0.1068
      7 C5         37.1550   53.5930   17.2280 C.3       1 PAI         0.1111
      8 O1         38.3220   53.4570   18.0460 O.3       1 PAI        -0.3865
      9 C4         35.8850   53.7040   18.0840 C.3       1 PAI         0.1119
     10 O4         34.6770   54.0020   17.3690 O.3       1 PAI        -0.3865
     11 C3         35.7660   52.4250   18.9310 C.3       1 PAI         0.1143
     12 O3         35.5920   51.2360   18.1490 O.3       1 PAI        -0.3864
     13 C2         34.6120   52.6640   19.9040 C.3       1 PAI         0.1231
     14 O2         34.7960   53.7340   20.8260 O.3       1 PAI        -0.3838
     15 C1         34.3920   51.4260   20.7650 C.3       1 PAI        -0.0000
     16 N1         33.0570   51.3440   21.0400 N.4       1 PAI         0.2605
     17 C7         32.7280   51.5570   22.3570 C.3       1 PAI         0.0226
     18 C8         31.4380   52.1820   22.8710 C.2       1 PAI         0.0813
     19 O5         30.4040   51.4870   22.6190 O.co2     1 PAI        -0.5645
     20 O6         31.4790   53.2550   23.3760 O.co2     1 PAI        -0.5645
     21 C9         32.4540   50.2480   20.4700 C.3       1 PAI         0.0388
     22 P2         32.3140   49.4290   19.1640 P.3       1 PAI         0.1070
     23 O5P        32.9370   48.2010   19.6490 O.co2     1 PAI        -0.5587
     24 O6P        33.0370   50.0450   18.0160 O.co2     1 PAI        -0.5587
     25 O7P        30.7870   49.4420   18.8480 O.co2     1 PAI        -0.5587
     26 H1         37.1568   54.4710   15.2756 H         1 PAI         0.0639
     27 H2         36.3097   55.4333   16.5339 H         1 PAI         0.0639
     28 H3         37.0819   52.6943   16.5980 H         1 PAI         0.0646
     29 H4         38.4022   54.2171   18.6103 H         1 PAI         0.2100
     30 H5         36.0413   54.5443   18.7764 H         1 PAI         0.0647
     31 H6         34.7979   54.7966   16.8625 H         1 PAI         0.2100
     32 H7         36.6938   52.3018   19.5090 H         1 PAI         0.0648
     33 H8         34.7921   51.3064   17.6414 H         1 PAI         0.2100
     34 H9         33.7098   52.8667   19.3082 H         1 PAI         0.0674
     35 H10        34.9393   54.5420   20.3472 H         1 PAI         0.2101
     36 H11        34.9627   51.5144   21.7012 H         1 PAI         0.0841
     37 H12        34.7182   50.5278   20.2202 H         1 PAI         0.0841
     38 H13        32.6536   52.1311   20.5564 H         1 PAI         0.2063
     39 H14        33.5335   52.1912   22.7557 H         1 PAI         0.0989
     40 H15        32.7748   50.5646   22.8292 H         1 PAI         0.0989
     41 H16        31.3975   50.4817   20.6678 H         1 PAI         0.1014
     42 H17        32.7905   49.4597   21.1594 H         1 PAI         0.1014
@<TRIPOS>BOND
     1    1    5 ar 
     2    1    4 1  
     3    1    3 ar 
     4    1    2 ar 
     5    4    6 1  
     6    6    7 1  
     7    7    9 1  
     8    7    8 1  
     9    9   11 1  
    10    9   10 1  
    11   11   13 1  
    12   11   12 1  
    13   13   15 1  
    14   13   14 1  
    15   15   16 1  
    16   16   21 1  
    17   16   17 1  
    18   17   18 1  
    19   18   20 ar 
    20   18   19 ar 
    21   21   22 1  
    22   22   25 ar 
    23   22   24 ar 
    24   22   23 ar 
    25    6   26 1  
    26    6   27 1  
    27    7   28 1  
    28    8   29 1  
    29    9   30 1  
    30   10   31 1  
    31   11   32 1  
    32   12   33 1  
    33   13   34 1  
    34   14   35 1  
    35   15   36 1  
    36   15   37 1  
    37   16   38 1  
    38   17   39 1  
    39   17   40 1  
    40   21   41 1  
    41   21   42 1  
@<TRIPOS>SUBSTRUCTURE
     1 PAI         1

