### 
### Created by X-TOOL on Fri Nov 18 17:23:18 2016
### 

@<TRIPOS>MOLECULE
4ksy_ligand
   68    74     1     0     0
SMALL
GAST_HUCK


@<TRIPOS>ATOM
      1 C2         52.2850    8.6450  -17.4450 C.ar      1 1SY         0.0533
      2 N01        49.6710   10.9640  -18.6860 N.pl3     1 1SY        -0.3152
      3 C6         50.4240    9.7210  -18.4170 C.ar      1 1SY         0.1298
      4 N1         51.5720    9.7460  -17.7220 N.ar      1 1SY        -0.2698
      5 N3         51.8610    7.4660  -17.8650 N.ar      1 1SY        -0.2714
      6 C4         50.7070    7.3220  -18.5710 C.ar      1 1SY         0.1613
      7 C5         49.9320    8.4630  -18.8840 C.ar      1 1SY         0.1045
      8 N7         48.8460    8.0280  -19.5990 N.2       1 1SY        -0.2958
      9 C8         48.9040    6.6800  -19.7520 C.2       1 1SY         0.1123
     10 N9         50.0210    6.2780  -19.1410 N.pl3     1 1SY        -0.1919
     11 C1'        50.6820    5.0190  -18.9280 C.3       1 1SY         0.2014
     12 C2'        50.3800    4.5220  -17.6030 C.3       1 1SY         0.1439
     13 O2'        51.4400    3.6300  -17.2290 O.3       1 1SY        -0.3832
     14 C3'        49.1380    3.7640  -17.7640 C.3       1 1SY         0.1540
     15 C4'        49.3700    3.0940  -19.0520 C.3       1 1SY         0.1242
     16 C16        48.0770    2.8130  -19.7600 C.3       1 1SY         0.1128
     17 O17        47.3510    4.0050  -19.8420 O.3       1 1SY        -0.2514
     18 P18        45.8310    3.9760  -20.3360 P.3       1 1SY         0.2558
     19 O19        45.2100    5.3590  -20.4290 O.co2     1 1SY        -0.6177
     20 O20        44.9410    3.0300  -19.3560 O.3       1 1SY        -0.2424
     21 C21        45.2380    3.1020  -17.9730 C.3       1 1SY         0.1796
     22 C22        45.2250    1.7570  -17.3180 C.3       1 1SY         0.1205
     23 O23        44.2030    0.9400  -17.8650 O.3       1 1SY        -0.3860
     24 C24        44.8730    2.0310  -15.9330 C.3       1 1SY         0.1194
     25 C25        46.0690    2.1690  -15.0260 C.3       1 1SY         0.1124
     26 O26        46.8210    3.3290  -15.2750 O.3       1 1SY        -0.2514
     27 P27        48.4210    3.2980  -15.2370 P.3       1 1SY         0.2557
     28 O28        49.0550    2.7930  -16.6760 O.3       1 1SY        -0.2453
     29 O29        48.9350    4.6470  -14.8570 O.co2     1 1SY        -0.6177
     30 O30        48.8670    2.3150  -14.2230 O.co2     1 1SY        -0.6177
     31 O31        44.0510    3.2250  -15.9400 O.3       1 1SY        -0.3344
     32 C32        44.1570    3.8380  -17.2540 C.3       1 1SY         0.2273
     33 N33        44.4350    5.1710  -17.0820 N.pl3     1 1SY        -0.0950
     34 C34        45.4790    5.7220  -16.4980 C.2       1 1SY         0.1855
     35 N35        45.3480    7.0540  -16.5280 N.2       1 1SY        -0.1929
     36 C36        43.5900    6.1640  -17.4820 C.2       1 1SY         0.3268
     37 C37        44.1750    7.3700  -17.1260 C.2       1 1SY         0.2558
     38 C38        43.4860    8.6660  -17.4440 C.2       1 1SY         0.2628
     39 N39        42.2310    8.6400  -18.1030 N.am      1 1SY        -0.2478
     40 C40        41.6380    7.3850  -18.4560 C.cat     1 1SY         0.2041
     41 N41        40.3750    7.3540  -19.1170 N.pl3     1 1SY        -0.3327
     42 N42        42.3190    6.1330  -18.1560 N.pl3     1 1SY        -0.1901
     43 O43        44.0020    9.7630  -17.1390 O.2       1 1SY        -0.3594
     44 O44        45.8260    3.3320  -21.6550 O.co2     1 1SY        -0.6177
     45 O4'        50.1540    4.0440  -19.8200 O.3       1 1SY        -0.3360
     46 H1         53.2060    8.7216  -16.8785 H         1 1SY         0.0996
     47 H2         48.7916   10.9278  -19.2209 H         1 1SY         0.1820
     48 H3         50.0257   11.8664  -18.3385 H         1 1SY         0.1820
     49 H4         48.1820    6.0510  -20.2707 H         1 1SY         0.1349
     50 H5         51.7670    5.1342  -19.0672 H         1 1SY         0.0996
     51 H6         50.2680    5.3352  -16.8707 H         1 1SY         0.0680
     52 H7         51.2705    3.2853  -16.3601 H         1 1SY         0.2101
     53 H8         48.2456    4.4068  -17.7848 H         1 1SY         0.0712
     54 H9         49.9230    2.1543  -18.9064 H         1 1SY         0.0655
     55 H10        47.5001    2.0646  -19.1969 H         1 1SY         0.0647
     56 H11        48.2823    2.4327  -20.7715 H         1 1SY         0.0647
     57 H12        46.2127    3.5927  -17.8348 H         1 1SY         0.0742
     58 H13        46.2039    1.2626  -17.4030 H         1 1SY         0.0652
     59 H14        44.3543    0.8263  -18.7959 H         1 1SY         0.2100
     60 H15        44.2707    1.1916  -15.5555 H         1 1SY         0.0651
     61 H16        46.7192    1.2934  -15.1691 H         1 1SY         0.0647
     62 H17        45.7165    2.1977  -13.9844 H         1 1SY         0.0647
     63 H18        43.2113    3.7344  -17.8061 H         1 1SY         0.1026
     64 H19        46.3160    5.1801  -16.0602 H         1 1SY         0.1823
     65 H20        41.7612    9.4955  -18.3207 H         1 1SY         0.1819
     66 H21        39.9486    6.4514  -19.3708 H         1 1SY         0.1774
     67 H22        39.8890    8.2342  -19.3407 H         1 1SY         0.1774
     68 H23        41.8947    5.2335  -18.4239 H         1 1SY         0.2519
@<TRIPOS>BOND
     1    4    1 ar 
     2    1    5 ar 
     3    3    2 1  
     4    3    4 ar 
     5    3    7 ar 
     6    5    6 ar 
     7    6    7 ar 
     8    6   10 1  
     9    7    8 1  
    10    8    9 2  
    11    9   10 1  
    12   10   11 1  
    13   11   12 1  
    14   11   45 1  
    15   12   13 1  
    16   12   14 1  
    17   14   15 1  
    18   14   28 1  
    19   15   16 1  
    20   15   45 1  
    21   16   17 1  
    22   17   18 1  
    23   18   19 ar 
    24   18   20 1  
    25   18   44 ar 
    26   20   21 1  
    27   21   22 1  
    28   21   32 1  
    29   22   23 1  
    30   22   24 1  
    31   24   25 1  
    32   24   31 1  
    33   25   26 1  
    34   26   27 1  
    35   27   28 1  
    36   27   29 ar 
    37   27   30 ar 
    38   31   32 1  
    39   32   33 1  
    40   33   34 1  
    41   33   36 1  
    42   34   35 2  
    43   35   37 1  
    44   36   37 2  
    45   36   42 1  
    46   37   38 1  
    47   38   39 am 
    48   38   43 2  
    49   39   40 ar 
    50   40   41 ar 
    51   40   42 ar 
    52    1   46 1  
    53    2   47 1  
    54    2   48 1  
    55    9   49 1  
    56   11   50 1  
    57   12   51 1  
    58   13   52 1  
    59   14   53 1  
    60   15   54 1  
    61   16   55 1  
    62   16   56 1  
    63   21   57 1  
    64   22   58 1  
    65   23   59 1  
    66   24   60 1  
    67   25   61 1  
    68   25   62 1  
    69   32   63 1  
    70   34   64 1  
    71   39   65 1  
    72   41   66 1  
    73   41   67 1  
    74   42   68 1  
@<TRIPOS>SUBSTRUCTURE
     1 1SY         1

