### 
### Created by X-TOOL on Fri Nov 18 12:03:38 2016
### 

@<TRIPOS>MOLECULE
1nja_ligand
   32    33     1     0     0
SMALL
GAST_HUCK


@<TRIPOS>ATOM
      1 N1         15.1840   46.7700  -52.4170 N.am      1 DCM        -0.1675
      2 C2         14.3930   45.8310  -51.8040 C.2       1 DCM         0.2512
      3 N3         13.6130   46.2850  -50.7560 N.2       1 DCM        -0.2774
      4 C4         13.6360   47.5830  -50.3560 C.2       1 DCM         0.0850
      5 C5         14.4610   48.5200  -51.0050 C.2       1 DCM         0.0083
      6 C6         15.2310   48.0420  -52.0540 C.2       1 DCM         0.0794
      7 O2         14.3930   44.6540  -52.1480 O.2       1 DCM        -0.4066
      8 N4         12.9040   48.0020  -49.3460 N.pl3     1 DCM        -0.3156
      9 C1'        16.0180   46.4250  -53.5420 C.3       1 DCM         0.1859
     10 C2'        15.2480   46.3280  -54.8550 C.3       1 DCM         0.0339
     11 C3'        16.4140   46.3740  -55.8260 C.3       1 DCM         0.0892
     12 C4'        17.3030   47.5340  -55.3580 C.3       1 DCM         0.1159
     13 O4'        17.1420   47.3690  -53.8730 O.3       1 DCM        -0.3368
     14 O3'        17.1580   45.1450  -55.6540 O.3       1 DCM        -0.3889
     15 C5'        16.7270   48.8740  -55.8280 C.3       1 DCM         0.1071
     16 O5'        16.9780   48.9670  -57.2610 O.3       1 DCM        -0.2734
     17 P          15.9390   49.3110  -58.3770 P.3       1 DCM         0.2008
     18 O1P        16.4890   49.0510  -59.7300 O.co2     1 DCM        -0.5537
     19 O2P        14.8250   48.3920  -58.1470 O.co2     1 DCM        -0.5537
     20 O3P        15.5140   50.7430  -58.3510 O.co2     1 DCM        -0.5537
     21 H1         14.4929   49.5648  -50.6996 H         1 DCM         0.0373
     22 H2         15.8872   48.7263  -52.5898 H         1 DCM         0.1328
     23 H3         12.9380   48.9911  -49.0608 H         1 DCM         0.1833
     24 H4         12.2970   47.3408  -48.8406 H         1 DCM         0.1833
     25 H5         16.4537   45.4417  -53.3111 H         1 DCM         0.0999
     26 H6         14.5632   47.1775  -54.9940 H         1 DCM         0.0347
     27 H7         14.6847   45.3864  -54.9330 H         1 DCM         0.0347
     28 H8         16.0814   46.5054  -56.8662 H         1 DCM         0.0622
     29 H9         18.3479   47.4294  -55.6855 H         1 DCM         0.0649
     30 H10        17.8988   45.1388  -56.2486 H         1 DCM         0.2099
     31 H11        17.2234   49.7035  -55.3030 H         1 DCM         0.0639
     32 H12        15.6454   48.9102  -55.6309 H         1 DCM         0.0639
@<TRIPOS>BOND
     1    1    9 1  
     2    1    6 1  
     3    1    2 am 
     4    2    7 2  
     5    2    3 1  
     6    3    4 2  
     7    4    8 1  
     8    4    5 1  
     9    5    6 2  
    10    9   13 1  
    11    9   10 1  
    12   10   11 1  
    13   11   14 1  
    14   11   12 1  
    15   12   15 1  
    16   12   13 1  
    17   15   16 1  
    18   16   17 1  
    19   17   20 ar 
    20   17   19 ar 
    21   17   18 ar 
    22    5   21 1  
    23    6   22 1  
    24    8   23 1  
    25    8   24 1  
    26    9   25 1  
    27   10   26 1  
    28   10   27 1  
    29   11   28 1  
    30   12   29 1  
    31   14   30 1  
    32   15   31 1  
    33   15   32 1  
@<TRIPOS>SUBSTRUCTURE
     1 DCM         1

