### 
### Created by X-TOOL on Fri Nov 18 17:27:50 2016
### 

@<TRIPOS>MOLECULE
4nku_ligand
   62    66     1     0     0
SMALL
GAST_HUCK


@<TRIPOS>ATOM
      1 O5'        13.6170   21.4400   15.1760 O.3       1 A          -0.3924
      2 C5'        12.3320   20.9260   15.4940 C.3       1 A           0.0734
      3 C4'        11.2400   21.6390   14.7320 C.3       1 A           0.1189
      4 O4'        11.4190   23.0760   14.8450 O.3       1 A          -0.3364
      5 C3'        11.1910   21.3930   13.2300 C.3       1 A           0.1536
      6 O3'        10.5470   20.1770   12.8870 O.3       1 A          -0.2453
      7 C2'        10.4530   22.6240   12.7250 C.3       1 A           0.1438
      8 O2'         9.0610   22.5000   12.9690 O.3       1 A          -0.3832
      9 C1'        11.0120   23.7070   13.6460 C.3       1 A           0.2014
     10 N9         12.1780   24.3830   13.0440 N.pl3     1 A          -0.1919
     11 C8         13.4940   24.3060   13.4460 C.2       1 A           0.1123
     12 N7         14.3110   25.0210   12.7090 N.2       1 A          -0.2958
     13 C5         13.4840   25.6100   11.7570 C.ar      1 A           0.1045
     14 C6         13.7510   26.4800   10.6870 C.ar      1 A           0.1298
     15 N6         14.9710   26.9280   10.3810 N.pl3     1 A          -0.3152
     16 N1         12.7080   26.8790    9.9270 N.ar      1 A          -0.2698
     17 C2         11.4840   26.4250   10.2280 C.ar      1 A           0.0533
     18 N3         11.1080   25.6060   11.2070 N.ar      1 A          -0.2714
     19 C4         12.1670   25.2270   11.9490 C.ar      1 A           0.1613
     20 P          11.1930   19.1850   11.7950 P.3       1 A           0.2557
     21 OP1        10.1870   18.1220   11.5440 O.co2     1 A          -0.6177
     22 OP2        12.5690   18.8040   12.2080 O.co2     1 A          -0.6177
     23 O5'        11.3300   20.0850   10.4810 O.3       1 A          -0.2514
     24 C5'        10.1900   20.5860    9.7890 C.3       1 A           0.1124
     25 C4'        10.5930   21.4830    8.6380 C.3       1 A           0.1188
     26 O4'        11.2330   22.6850    9.1470 O.3       1 A          -0.3363
     27 C3'        11.6180   20.8980    7.6730 C.3       1 A           0.1149
     28 O3'        11.0410   20.0380    6.7040 O.3       1 A          -0.3864
     29 C2'        12.2630   22.1400    7.0710 C.3       1 A           0.1387
     30 O2'        11.4520   22.6810    6.0310 O.3       1 A          -0.3836
     31 C1'        12.2570   23.1000    8.2660 C.3       1 A           0.2059
     32 N1         13.5460   23.0640    8.9920 N.am      1 A          -0.1592
     33 C2         14.5980   23.7740    8.4530 C.2       1 A           0.3328
     34 O2         14.4820   24.4260    7.4250 O.2       1 A          -0.3815
     35 N3         15.7800   23.6980    9.1570 N.am      1 A          -0.1865
     36 C4         16.0030   22.9900   10.3200 C.2       1 A           0.1822
     37 O4         17.1190   23.0080   10.8450 O.2       1 A          -0.4124
     38 C5         14.8620   22.2750   10.8080 C.2       1 A           0.0062
     39 C6         13.6970   22.3270   10.1460 C.2       1 A           0.0591
     40 H1         13.6513   22.3632   15.3975 H         1 A           0.2095
     41 H2         12.1546   21.0520   16.5723 H         1 A           0.0584
     42 H3         12.3033   19.8561   15.2402 H         1 A           0.0584
     43 H4         10.2767   21.3410   15.1715 H         1 A           0.0651
     44 H5         12.2101   21.3667   12.8169 H         1 A           0.0712
     45 H6         10.6504   22.8247   11.6616 H         1 A           0.0680
     46 H7          8.6142   23.2749   12.6488 H         1 A           0.2101
     47 H8         10.2296   24.4510   13.8567 H         1 A           0.0996
     48 H9         13.8244   23.7087   14.2945 H         1 A           0.1349
     49 H10        15.1003   27.5653    9.5822 H         1 A           0.1820
     50 H11        15.7829   26.6363   10.9437 H         1 A           0.1820
     51 H12        10.6866   26.7745    9.5822 H         1 A           0.0996
     52 H13         9.5695   21.1619   10.4913 H         1 A           0.0647
     53 H14         9.6089   19.7388    9.3960 H         1 A           0.0647
     54 H15         9.6828   21.7449    8.0787 H         1 A           0.0651
     55 H16        12.3699   20.3205    8.2307 H         1 A           0.0648
     56 H17        10.4050   20.5225    6.1908 H         1 A           0.2100
     57 H18        13.2792   21.9384    6.7014 H         1 A           0.0676
     58 H19        11.3416   22.0314    5.3467 H         1 A           0.2101
     59 H20        12.0631   24.1244    7.9152 H         1 A           0.0997
     60 H21        16.5561   24.2086    8.7869 H         1 A           0.2259
     61 H22        14.9409   21.6864   11.7208 H         1 A           0.0258
     62 H23        12.8447   21.7699   10.5322 H         1 A           0.1178
@<TRIPOS>BOND
     1    1    2 1  
     2    2    3 1  
     3    3    4 1  
     4    3    5 1  
     5    4    9 1  
     6    5    6 1  
     7    5    7 1  
     8    6   20 1  
     9    7    8 1  
    10    7    9 1  
    11    9   10 1  
    12   10   11 1  
    13   10   19 1  
    14   11   12 2  
    15   12   13 1  
    16   13   14 ar 
    17   13   19 ar 
    18   14   15 1  
    19   14   16 ar 
    20   16   17 ar 
    21   17   18 ar 
    22   18   19 ar 
    23   20   21 ar 
    24   20   22 ar 
    25   20   23 1  
    26   23   24 1  
    27   24   25 1  
    28   25   26 1  
    29   25   27 1  
    30   26   31 1  
    31   27   28 1  
    32   27   29 1  
    33   29   30 1  
    34   29   31 1  
    35   31   32 1  
    36   32   33 am 
    37   32   39 1  
    38   33   34 2  
    39   33   35 am 
    40   35   36 am 
    41   36   37 2  
    42   36   38 1  
    43   38   39 2  
    44    1   40 1  
    45    2   41 1  
    46    2   42 1  
    47    3   43 1  
    48    5   44 1  
    49    7   45 1  
    50    8   46 1  
    51    9   47 1  
    52   11   48 1  
    53   15   49 1  
    54   15   50 1  
    55   17   51 1  
    56   24   52 1  
    57   24   53 1  
    58   25   54 1  
    59   27   55 1  
    60   28   56 1  
    61   29   57 1  
    62   30   58 1  
    63   31   59 1  
    64   35   60 1  
    65   38   61 1  
    66   39   62 1  
@<TRIPOS>SUBSTRUCTURE
     1 A           1

