### 
### Created by X-TOOL on Fri Nov 18 16:39:56 2016
### 

@<TRIPOS>MOLECULE
2xyd_ligand
   87    91     1     0     0
SMALL
GAST_HUCK


@<TRIPOS>ATOM
      1 CAQ        -4.2380  -20.7740  -19.6950 C.ar      1 MOL        -0.0578
      2 CAK        -4.8750  -21.1870  -18.5260 C.ar      1 MOL        -0.0685
      3 CAH        -6.0060  -22.0010  -18.5980 C.ar      1 MOL        -0.0687
      4 CAL        -6.5070  -22.3980  -19.8380 C.ar      1 MOL        -0.0685
      5 CAR        -5.8700  -21.9860  -21.0110 C.ar      1 MOL        -0.0578
      6 CBP        -4.7280  -21.1790  -20.9420 C.ar      1 MOL        -0.0130
      7 CBB        -4.0870  -20.7390  -22.1060 C.3       1 MOL         0.1113
      8 OBJ        -3.9620  -19.3240  -22.2000 O.3       1 MOL        -0.2506
      9 CBM        -3.1410  -18.7200  -23.1020 C.2       1 MOL         0.3232
     10 OAB        -3.0410  -19.1490  -24.2590 O.2       1 MOL        -0.3774
     11 NBI        -2.5440  -17.6100  -22.6370 N.am      1 MOL        -0.2418
     12 CBX        -1.6890  -16.7170  -23.4100 C.3       1 MOL         0.1176
     13 CBE        -2.0690  -15.2510  -23.0420 C.3       1 MOL         0.0205
     14 CBQ        -3.5740  -14.9090  -23.2840 C.ar      1 MOL        -0.0393
     15 CAS        -4.0160  -14.4710  -24.5350 C.ar      1 MOL        -0.0602
     16 CAM        -5.3650  -14.1650  -24.7730 C.ar      1 MOL        -0.0686
     17 CAI        -6.3080  -14.2820  -23.7520 C.ar      1 MOL        -0.0687
     18 CAN        -5.8730  -14.7250  -22.5010 C.ar      1 MOL        -0.0686
     19 CAT        -4.5180  -15.0330  -22.2640 C.ar      1 MOL        -0.0602
     20 PBY         0.0520  -17.1250  -22.9570 P.3       1 MOL         0.0154
     21 OAG         0.2800  -18.5920  -23.5140 O.co2     1 MOL        -0.6174
     22 OAD         0.1470  -17.0600  -21.4720 O.co2     1 MOL        -0.6174
     23 N           3.3170  -14.6010  -21.2770 N.am      1 MOL        -0.2694
     24 CA          3.3060  -13.5740  -20.2050 C.3       1 MOL         0.1024
     25 C           3.8150  -12.2630  -20.8240 C.2       1 MOL         0.0619
     26 OXT         4.1950  -12.3140  -22.0150 O.co2     1 MOL        -0.5665
     27 O           3.8170  -11.2390  -20.1070 O.co2     1 MOL        -0.5665
     28 CB          4.1300  -13.9500  -18.9570 C.3       1 MOL         0.0108
     29 CG          5.2840  -14.9350  -19.1830 C.ar      1 MOL        -0.0499
     30 CD1         6.5890  -14.4800  -19.3850 C.ar      1 MOL        -0.0686
     31 CE1         7.6320  -15.3950  -19.5740 C.ar      1 MOL        -0.0398
     32 CZ          7.3640  -16.7680  -19.5560 C.ar      1 MOL         0.0805
     33 OH          8.3610  -17.6890  -19.7430 O.3       1 MOL        -0.3376
     34 CE2         6.0610  -17.2190  -19.3480 C.ar      1 MOL        -0.0398
     35 CD2         5.0270  -16.3040  -19.1580 C.ar      1 MOL        -0.0686
     36 CBF         1.0820  -15.9920  -23.9430 C.3       1 MOL         0.0375
     37 CBV         2.4780  -15.6550  -23.3490 C.3       1 MOL         0.0788
     38 CBN         2.3310  -14.6410  -22.1900 C.2       1 MOL         0.1848
     39 OAC         1.3830  -13.8510  -22.1830 O.2       1 MOL        -0.3964
     40 CBC         3.2460  -16.9300  -22.9680 C.3       1 MOL         0.0422
     41 CBS         4.7880  -16.8590  -23.0110 C.2       1 MOL         0.1411
     42 CBA         5.6460  -15.8430  -23.1300 C.2       1 MOL        -0.0269
     43 OBK         5.5150  -18.0000  -22.8770 O.3       1 MOL        -0.1670
     44 NBG         6.8740  -17.6490  -22.9220 N.2       1 MOL        -0.1519
     45 CBU         6.9060  -16.3290  -23.0860 C.2       1 MOL         0.0430
     46 CBT         8.0940  -15.6140  -23.1530 C.ar      1 MOL        -0.0150
     47 CAU         8.0940  -14.2300  -23.3470 C.ar      1 MOL        -0.0551
     48 CAO         9.3140  -13.5440  -23.3900 C.ar      1 MOL        -0.0621
     49 CAJ        10.5160  -14.2360  -23.2210 C.ar      1 MOL        -0.0626
     50 CAP        10.5230  -15.6190  -23.0190 C.ar      1 MOL        -0.0621
     51 CAV         9.3080  -16.3090  -22.9780 C.ar      1 MOL        -0.0551
     52 H1         -3.3618  -20.1382  -19.6383 H         1 MOL         0.0557
     53 H2         -4.4917  -20.8758  -17.5609 H         1 MOL         0.0599
     54 H3         -6.4968  -22.3259  -17.6877 H         1 MOL         0.0559
     55 H4         -7.3894  -23.0254  -19.8912 H         1 MOL         0.0599
     56 H5         -6.2601  -22.2913  -21.9752 H         1 MOL         0.0557
     57 H6         -4.6636  -21.0934  -22.9732 H         1 MOL         0.0776
     58 H7         -3.0785  -21.1775  -22.1321 H         1 MOL         0.0776
     59 H8         -2.6995  -17.3758  -21.6773 H         1 MOL         0.1888
     60 H9         -1.8385  -16.8750  -24.4883 H         1 MOL         0.0787
     61 H10        -1.4566  -14.5706  -23.6519 H         1 MOL         0.0465
     62 H11        -1.8443  -15.0915  -21.9771 H         1 MOL         0.0465
     63 H12        -3.2995  -14.3649  -25.3415 H         1 MOL         0.0557
     64 H13        -5.6763  -13.8353  -25.7576 H         1 MOL         0.0599
     65 H14        -7.3495  -14.0359  -23.9247 H         1 MOL         0.0559
     66 H15        -6.5914  -14.8341  -21.6966 H         1 MOL         0.0599
     67 H16        -4.2069  -15.3689  -21.2814 H         1 MOL         0.0557
     68 H17         4.0620  -15.2667  -21.3202 H         1 MOL         0.1876
     69 H18         2.2649  -13.4310  -19.8801 H         1 MOL         0.0747
     70 H19         3.4438  -14.3986  -18.2236 H         1 MOL         0.0446
     71 H20         4.5548  -13.0237  -18.5429 H         1 MOL         0.0446
     72 H21         6.7949  -13.4158  -19.3955 H         1 MOL         0.0530
     73 H22         8.6439  -15.0406  -19.7338 H         1 MOL         0.0525
     74 H23         7.9944  -18.5643  -19.6984 H         1 MOL         0.2458
     75 H24         5.8520  -18.2826  -19.3341 H         1 MOL         0.0525
     76 H25         4.0169  -16.6596  -18.9898 H         1 MOL         0.0530
     77 H26         0.5286  -15.0486  -24.0600 H         1 MOL         0.0495
     78 H27         1.2376  -16.4507  -24.9306 H         1 MOL         0.0495
     79 H28         3.0616  -15.1581  -24.1380 H         1 MOL         0.0581
     80 H29         2.9312  -17.7260  -23.6589 H         1 MOL         0.0513
     81 H30         2.9548  -17.1987  -21.9419 H         1 MOL         0.0513
     82 H31         5.3748  -14.7945  -23.2439 H         1 MOL         0.0289
     83 H32         7.1594  -13.6932  -23.4630 H         1 MOL         0.0616
     84 H33         9.3259  -12.4727  -23.5549 H         1 MOL         0.0615
     85 H34        11.4543  -13.6938  -23.2469 H         1 MOL         0.0610
     86 H35        11.4597  -16.1504  -22.8956 H         1 MOL         0.0615
     87 H36         9.2993  -17.3801  -22.8114 H         1 MOL         0.0616
@<TRIPOS>BOND
     1    1    2 ar 
     2    6    1 ar 
     3    2    3 ar 
     4    4    3 ar 
     5    5    4 ar 
     6    6    5 ar 
     7    7    6 1  
     8    8    7 1  
     9    9    8 1  
    10    9   10 2  
    11   11    9 am 
    12   12   11 1  
    13   12   13 1  
    14   20   12 1  
    15   13   14 1  
    16   14   15 ar 
    17   14   19 ar 
    18   15   16 ar 
    19   16   17 ar 
    20   18   17 ar 
    21   19   18 ar 
    22   20   21 ar 
    23   20   22 ar 
    24   36   20 1  
    25   23   24 1  
    26   38   23 am 
    27   24   25 1  
    28   24   28 1  
    29   25   26 ar 
    30   25   27 ar 
    31   28   29 1  
    32   29   30 ar 
    33   29   35 ar 
    34   30   31 ar 
    35   31   32 ar 
    36   32   33 1  
    37   34   32 ar 
    38   35   34 ar 
    39   37   36 1  
    40   37   38 1  
    41   37   40 1  
    42   38   39 2  
    43   40   41 1  
    44   41   42 2  
    45   41   43 1  
    46   42   45 1  
    47   43   44 1  
    48   44   45 2  
    49   45   46 1  
    50   46   47 ar 
    51   46   51 ar 
    52   47   48 ar 
    53   48   49 ar 
    54   49   50 ar 
    55   50   51 ar 
    56    1   52 1  
    57    2   53 1  
    58    3   54 1  
    59    4   55 1  
    60    5   56 1  
    61    7   57 1  
    62    7   58 1  
    63   11   59 1  
    64   12   60 1  
    65   13   61 1  
    66   13   62 1  
    67   15   63 1  
    68   16   64 1  
    69   17   65 1  
    70   18   66 1  
    71   19   67 1  
    72   23   68 1  
    73   24   69 1  
    74   28   70 1  
    75   28   71 1  
    76   30   72 1  
    77   31   73 1  
    78   33   74 1  
    79   34   75 1  
    80   35   76 1  
    81   36   77 1  
    82   36   78 1  
    83   37   79 1  
    84   40   80 1  
    85   40   81 1  
    86   42   82 1  
    87   47   83 1  
    88   48   84 1  
    89   49   85 1  
    90   50   86 1  
    91   51   87 1  
@<TRIPOS>SUBSTRUCTURE
     1 MOL         1

