### 
### Created by X-TOOL on Fri Nov 18 17:46:03 2016
### 

@<TRIPOS>MOLECULE
4oma_ligand
   34    35     1     0     0
SMALL
GAST_HUCK


@<TRIPOS>ATOM
      1 N1          4.4490   21.1930   14.3260 N.ar      1 LCS        -0.3257
      2 C2          5.3460   20.6340   15.1600 C.ar      1 LCS         0.0389
      3 C2A         5.2320   20.9000   16.5420 C.3       1 LCS        -0.0224
      4 C3          6.4130   19.9120   14.5960 C.ar      1 LCS         0.1135
      5 O3          7.2500   19.3920   15.5040 O.3       1 LCS        -0.3348
      6 C4          6.5170   19.6070   13.2400 C.ar      1 LCS         0.0235
      7 C4A         7.5230   18.8370   12.6440 C.3       1 LCS         0.0521
      8 C5          5.5300   20.1810   12.3890 C.ar      1 LCS         0.0024
      9 C6          4.4960   20.9550   12.9980 C.ar      1 LCS        -0.0131
     10 C5A         5.4650   20.0730   10.9210 C.3       1 LCS         0.1104
     11 O4P         5.0430   18.8020   10.5560 O.3       1 LCS        -0.2651
     12 P           5.3150   17.9910    9.1910 P.3       1 LCS         0.2035
     13 O1P         5.0220   18.9410    8.1380 O.co2     1 LCS        -0.5536
     14 O2P         6.8290   17.6980    9.3660 O.co2     1 LCS        -0.5536
     15 O3P         4.5070   16.7900    9.2820 O.co2     1 LCS        -0.5536
     16 N           8.5980   18.4460   13.5920 N.pl3     1 LCS        -0.3259
     17 CA          9.7690   17.9220   13.1740 C.2       1 LCS         0.1194
     18 C          10.8020   17.6380   13.9750 C.2       1 LCS         0.2242
     19 O          10.8580   17.8600   15.3150 O.2       1 LCS        -0.4104
     20 ND         11.8170   17.1440   13.2670 N.am      1 LCS        -0.1390
     21 OG         11.2880   17.0750   11.7480 O.3       1 LCS        -0.1980
     22 CB         10.0010   17.6080   11.8300 C.2       1 LCS         0.1128
     23 H1          6.0324   20.3747   17.0837 H         1 LCS         0.0382
     24 H2          4.2538   20.5499   16.9033 H         1 LCS         0.0382
     25 H3          5.3211   21.9825   16.7156 H         1 LCS         0.0382
     26 H4          7.9441   18.9197   15.0594 H         1 LCS         0.2454
     27 H5          7.9723   19.4204   11.8269 H         1 LCS         0.0646
     28 H6          7.0679   17.9230   12.2348 H         1 LCS         0.0646
     29 H7          3.7167   21.3685   12.3680 H         1 LCS         0.0621
     30 H8          6.4626   20.2610   10.4975 H         1 LCS         0.0762
     31 H9          4.7552   20.8180   10.5321 H         1 LCS         0.0762
     32 H10         8.4443   18.5793   14.6017 H         1 LCS         0.1670
     33 H11        12.7175   16.8732   13.6074 H         1 LCS         0.2319
     34 H12         9.3072   17.7525   11.0032 H         1 LCS         0.0916
@<TRIPOS>BOND
     1    1    2 ar 
     2    1    9 ar 
     3    2    3 1  
     4    2    4 ar 
     5    4    5 1  
     6    4    6 ar 
     7    6    7 1  
     8    6    8 ar 
     9    7   16 1  
    10    8    9 ar 
    11    8   10 1  
    12   10   11 1  
    13   11   12 1  
    14   12   13 ar 
    15   12   14 ar 
    16   12   15 ar 
    17   16   17 1  
    18   17   18 1  
    19   17   22 2  
    20   18   19 2  
    21   18   20 am 
    22   20   21 1  
    23   21   22 1  
    24    3   23 1  
    25    3   24 1  
    26    3   25 1  
    27    5   26 1  
    28    7   27 1  
    29    7   28 1  
    30    9   29 1  
    31   10   30 1  
    32   10   31 1  
    33   16   32 1  
    34   20   33 1  
    35   22   34 1  
@<TRIPOS>SUBSTRUCTURE
     1 LCS         1

