### 
### Created by X-TOOL on Wed Dec 13 14:17:47 2017
### 

@<TRIPOS>MOLECULE
5d2r_ligand
   48    47     1     0     0
SMALL
GAST_HUCK


@<TRIPOS>ATOM
      1 C1         -0.0310   29.1000   -8.2170 C.3       1 MOL         0.0025
      2 C2         -0.8840   27.9560   -7.6690 C.3       1 MOL        -0.0446
      3 C3         -0.0230   26.8260   -7.1100 C.3       1 MOL        -0.0369
      4 C4         -0.6840   25.4670   -7.2260 C.3       1 MOL         0.0276
      5 C5         -1.9730   25.3880   -6.4550 C.2       1 MOL         0.0394
      6 C6          0.2720   24.2900   -6.9100 C.3       1 MOL         0.0277
      7 C7          1.1850   22.1080   -5.2450 C.3       1 MOL         0.0172
      8 C8          0.0780   21.1260   -5.5920 C.3       1 MOL        -0.0020
      9 O1         -2.3420   26.1870   -5.6100 O.co2     1 MOL        -0.5687
     10 O2         -0.7560   23.9260   -4.3640 O.co2     1 MOL        -0.6189
     11 C9          0.3410   19.8440   -4.8050 C.3       1 MOL         0.0957
     12 C10        -0.8980   17.8680   -4.0880 C.2       1 MOL         0.1746
     13 O8         -2.5720   31.1840   -7.0340 O.co2     1 MOL        -0.5643
     14 C13        -1.3770   30.8870   -7.1280 C.2       1 MOL         0.0844
     15 O7         -0.5640   31.0020   -6.0860 O.co2     1 MOL        -0.5643
     16 C          -0.7820   30.4350   -8.4130 C.3       1 MOL         0.0283
     17 N          -1.8990   30.3330   -9.3730 N.4       1 MOL         0.2327
     18 O          -2.7730   24.3890   -6.7590 O.co2     1 MOL        -0.5687
     19 P           0.5950   23.8190   -5.1790 P.3       1 MOL        -0.0139
     20 O6          1.7440   24.5740   -4.6550 O.co2     1 MOL        -0.6189
     21 C12         1.6890   19.2940   -5.1840 C.2       1 MOL         0.0601
     22 O5          1.9190   18.8220   -6.2900 O.co2     1 MOL        -0.5666
     23 O4          2.6700   19.3390   -4.2990 O.co2     1 MOL        -0.5666
     24 N1         -0.7470   18.8850   -4.9480 N.am      1 MOL        -0.2716
     25 O3         -0.0910   17.6470   -3.1930 O.2       1 MOL        -0.3973
     26 C11        -2.1360   17.0330   -4.2700 C.3       1 MOL         0.0258
     27 H1          0.3725   28.7887   -9.1918 H         1 MOL         0.0339
     28 H2          0.7982   29.2743   -7.5156 H         1 MOL         0.0339
     29 H3         -1.5106   27.5582   -8.4808 H         1 MOL         0.0269
     30 H4         -1.5274   28.3444   -6.8658 H         1 MOL         0.0269
     31 H5          0.1764   27.0295   -6.0476 H         1 MOL         0.0286
     32 H6          0.9273   26.8023   -7.6635 H         1 MOL         0.0286
     33 H7         -0.9572   25.3552   -8.2856 H         1 MOL         0.0481
     34 H8          1.2448   24.5418   -7.3575 H         1 MOL         0.0486
     35 H9         -0.1422   23.4015   -7.4090 H         1 MOL         0.0486
     36 H10         1.9735   22.0356   -6.0085 H         1 MOL         0.0467
     37 H11         1.6002   21.8395   -4.2624 H         1 MOL         0.0467
     38 H12         0.0887   20.9134   -6.6712 H         1 MOL         0.0321
     39 H13        -0.8989   21.5460   -5.3107 H         1 MOL         0.0321
     40 H14         0.3874   20.1123   -3.7393 H         1 MOL         0.0726
     41 H15        -0.0641   31.1864   -8.7735 H         1 MOL         0.1024
     42 H16        -2.3501   31.2302   -9.4602 H         1 MOL         0.2010
     43 H17        -2.5653   29.6527   -9.0423 H         1 MOL         0.2010
     44 H18        -1.5443   30.0465  -10.2720 H         1 MOL         0.2010
     45 H19        -1.3943   18.9878   -5.7033 H         1 MOL         0.1875
     46 H20        -2.1538   16.2341   -3.5141 H         1 MOL         0.0467
     47 H21        -2.1326   16.5865   -5.2753 H         1 MOL         0.0467
     48 H22        -3.0268   17.6677   -4.1536 H         1 MOL         0.0467
@<TRIPOS>BOND
     1    1    2 1  
     2   16    1 1  
     3    2    3 1  
     4    3    4 1  
     5    4    5 1  
     6    4    6 1  
     7    5    9 ar 
     8    5   18 ar 
     9    6   19 1  
    10    7    8 1  
    11   19    7 1  
    12    8   11 1  
    13   19   10 ar 
    14   11   21 1  
    15   11   24 1  
    16   24   12 am 
    17   12   25 2  
    18   12   26 1  
    19   14   13 ar 
    20   14   15 ar 
    21   14   16 1  
    22   16   17 1  
    23   19   20 ar 
    24   21   22 ar 
    25   21   23 ar 
    26    1   27 1  
    27    1   28 1  
    28    2   29 1  
    29    2   30 1  
    30    3   31 1  
    31    3   32 1  
    32    4   33 1  
    33    6   34 1  
    34    6   35 1  
    35    7   36 1  
    36    7   37 1  
    37    8   38 1  
    38    8   39 1  
    39   11   40 1  
    40   16   41 1  
    41   17   42 1  
    42   17   43 1  
    43   17   44 1  
    44   24   45 1  
    45   26   46 1  
    46   26   47 1  
    47   26   48 1  
@<TRIPOS>SUBSTRUCTURE
     1 MOL         1

