### 
### Created by X-TOOL on Fri Nov 18 12:11:26 2016
### 

@<TRIPOS>MOLECULE
1bxq_ligand
   89    89     1     0     0
SMALL
GAST_HUCK


@<TRIPOS>ATOM
      1 NV2        17.8320    5.2860   18.4190 N.am      1 PP8        -0.2654
      2 CV1        15.9120    4.0050   17.5700 C.3       1 PP8         0.0397
      3 CV6        19.0790    5.6070   19.0680 C.3       1 PP8         0.1332
      4 CV2        14.6320    3.8110   18.3760 C.3       1 PP8        -0.0298
      5 CV7        20.3030    5.5530   18.1680 C.3       1 PP8        -0.0063
      6 CV3        14.4710    4.9390   19.3820 C.3       1 PP8        -0.0606
      7 CV8        20.5040    4.1890   17.5240 C.3       1 PP8        -0.0584
      8 CV4        13.4430    3.8340   17.4010 C.3       1 PP8        -0.0606
      9 CV9        20.3630    6.6440   17.1180 C.3       1 PP8        -0.0584
     10 CV5        17.1080    4.1910   18.5110 C.2       1 PP8         0.1785
     11 CR         18.9500    7.0010   19.7110 C.2       1 PP8         0.2043
     12 OV1        17.4690    3.3090   19.2930 O.2       1 PP8        -0.3969
     13 OV2        18.0990    7.8140   19.3640 O.2       1 PP8        -0.3944
     14 N1         19.8370    7.2350   20.6840 N.am      1 PP8        -0.2616
     15 C1         19.8160    8.4200   21.5280 C.3       1 PP8         0.1475
     16 C2         18.9670    8.2870   22.7540 C.3       1 PP8         0.0773
     17 C4         18.9430    9.4570   23.7210 C.2       1 PP8         0.1780
     18 O2         18.8230    9.1030   24.9170 O.2       1 PP8        -0.3970
     19 N2         19.0480   10.7380   23.4230 N.am      1 PP8        -0.3007
     20 C3         21.2630    8.8130   21.7810 C.2       1 PP8         0.2055
     21 O1         21.8280    8.4580   22.8110 O.2       1 PP8        -0.3943
     22 NL         21.8590    9.5010   20.8020 N.am      1 PP8        -0.2640
     23 CAL        23.2410    9.9210   20.7380 C.3       1 PP8         0.1313
     24 CBL        23.9850    9.4030   19.5150 C.3       1 PP8        -0.0089
     25 CGL        23.7190    7.9470   19.1750 C.3       1 PP8        -0.0431
     26 CL1        24.4010    7.5330   17.8850 C.3       1 PP8        -0.0625
     27 CL2        24.1640    7.0130   20.3000 C.3       1 PP8        -0.0625
     28 P          23.4010   11.6970   20.9410 P.3       1 PP8         0.1500
     29 O3         22.4630   12.3340   19.9930 O.co2     1 PP8        -0.6187
     30 O4         24.8440   12.0810   20.8150 O.co2     1 PP8        -0.6187
     31 O5         22.9220   12.0060   22.3990 O.3       1 PP8        -0.2509
     32 C5         23.5630   12.9600   23.1660 C.3       1 PP8         0.2011
     33 C6         22.5630   14.0090   23.7430 C.3       1 PP8         0.0314
     34 C7         25.4640   12.8530   26.3700 C.3       1 PP8         0.0659
     35 CE2        21.6500   13.5740   24.8720 C.ar      1 PP8        -0.0378
     36 CZ         21.3300   14.4610   25.8960 C.ar      1 PP8        -0.0601
     37 CD2        21.1210   12.3000   24.9100 C.ar      1 PP8        -0.0601
     38 CE1        20.4960   14.0630   26.9270 C.ar      1 PP8        -0.0686
     39 CD1        20.0140   12.7620   26.8840 C.ar      1 PP8        -0.0687
     40 CG         20.2840   11.8200   25.8950 C.ar      1 PP8        -0.0686
     41 CT         24.3240   12.3790   24.3790 C.2       1 PP8         0.2708
     42 OT1        24.7470   13.2270   25.2110 O.3       1 PP8        -0.2778
     43 OT2        24.4260   11.1470   24.5140 O.2       1 PP8        -0.3668
     44 H1         17.4665    5.9941   17.8149 H         1 PP8         0.1883
     45 H2         16.0810    3.1205   16.9383 H         1 PP8         0.0505
     46 H3         15.8087    4.8960   16.9333 H         1 PP8         0.0505
     47 H4         19.2336    4.8687   19.8687 H         1 PP8         0.0802
     48 H5         14.6670    2.8469   18.9045 H         1 PP8         0.0320
     49 H6         21.1662    5.7168   18.8298 H         1 PP8         0.0343
     50 H7         13.5453    4.7883   19.9568 H         1 PP8         0.0234
     51 H8         14.4198    5.9004   18.8499 H         1 PP8         0.0234
     52 H9         15.3313    4.9446   20.0674 H         1 PP8         0.0234
     53 H10        21.4009    4.2126   16.8876 H         1 PP8         0.0234
     54 H11        19.6256    3.9401   16.9104 H         1 PP8         0.0234
     55 H12        20.6309    3.4283   18.3083 H         1 PP8         0.0234
     56 H13        12.5066    3.6955   17.9614 H         1 PP8         0.0234
     57 H14        13.5547    3.0221   16.6673 H         1 PP8         0.0234
     58 H15        13.4171    4.8008   16.8770 H         1 PP8         0.0234
     59 H16        20.2163    7.6230   17.5977 H         1 PP8         0.0234
     60 H17        19.5716    6.4789   16.3721 H         1 PP8         0.0234
     61 H18        21.3446    6.6221   16.6222 H         1 PP8         0.0234
     62 H19        20.5554    6.5572   20.8404 H         1 PP8         0.1885
     63 H20        19.3611    9.2303   20.9395 H         1 PP8         0.0826
     64 H21        19.3259    7.4080   23.3094 H         1 PP8         0.0551
     65 H22        17.9330    8.1134   22.4214 H         1 PP8         0.0551
     66 H23        19.0185   11.4244   24.1496 H         1 PP8         0.1814
     67 H24        19.1571   11.0225   22.4705 H         1 PP8         0.1814
     68 H25        21.2829    9.7542   20.0248 H         1 PP8         0.1871
     69 H26        23.7378    9.4652   21.6072 H         1 PP8         0.0786
     70 H27        25.0637    9.5202   19.6960 H         1 PP8         0.0306
     71 H28        23.6896   10.0154   18.6503 H         1 PP8         0.0306
     72 H29        22.6336    7.8294   19.0411 H         1 PP8         0.0297
     73 H30        24.1824    6.4750   17.6779 H         1 PP8         0.0232
     74 H31        25.4879    7.6701   17.9844 H         1 PP8         0.0232
     75 H32        24.0273    8.1535   17.0572 H         1 PP8         0.0232
     76 H33        23.6721    7.3089   21.2383 H         1 PP8         0.0232
     77 H34        25.2553    7.0791   20.4214 H         1 PP8         0.0232
     78 H35        23.8848    5.9788   20.0500 H         1 PP8         0.0232
     79 H36        24.2846   13.4753   22.5151 H         1 PP8         0.0945
     80 H37        21.9219   14.3411   22.9131 H         1 PP8         0.0482
     81 H38        23.1563   14.8590   24.1109 H         1 PP8         0.0482
     82 H39        25.7295   13.7534   26.9433 H         1 PP8         0.0577
     83 H40        26.3812   12.3206   26.0779 H         1 PP8         0.0577
     84 H41        24.8394   12.1940   26.9909 H         1 PP8         0.0577
     85 H42        21.7350   15.4664   25.8862 H         1 PP8         0.0557
     86 H43        21.3836   11.6248   24.1036 H         1 PP8         0.0557
     87 H44        20.2310   14.7380   27.7327 H         1 PP8         0.0599
     88 H45        19.3671   12.4504   27.6961 H         1 PP8         0.0559
     89 H46        19.8787   10.8146   25.8989 H         1 PP8         0.0599
@<TRIPOS>BOND
     1    1    3 1  
     2   10    1 am 
     3    3    5 1  
     4    3   11 1  
     5    5    7 1  
     6    5    9 1  
     7   10   12 2  
     8   11   13 2  
     9   11   14 am 
    10   14   15 1  
    11   15   16 1  
    12   15   20 1  
    13   16   17 1  
    14   17   18 2  
    15   17   19 am 
    16   20   21 2  
    17   20   22 am 
    18   22   23 1  
    19   23   24 1  
    20   23   28 1  
    21   24   25 1  
    22   25   26 1  
    23   25   27 1  
    24   28   29 ar 
    25   28   30 ar 
    26   28   31 1  
    27   31   32 1  
    28   32   33 1  
    29   32   41 1  
    30   33   35 1  
    31   35   36 ar 
    32   35   37 ar 
    33   36   38 ar 
    34   37   40 ar 
    35   38   39 ar 
    36   40   39 ar 
    37   41   42 1  
    38   41   43 2  
    39   42   34 1  
    40    2   10 1  
    41    4    8 1  
    42    4    6 1  
    43    2    4 1  
    44    1   44 1  
    45    2   45 1  
    46    2   46 1  
    47    3   47 1  
    48    4   48 1  
    49    5   49 1  
    50    6   50 1  
    51    6   51 1  
    52    6   52 1  
    53    7   53 1  
    54    7   54 1  
    55    7   55 1  
    56    8   56 1  
    57    8   57 1  
    58    8   58 1  
    59    9   59 1  
    60    9   60 1  
    61    9   61 1  
    62   14   62 1  
    63   15   63 1  
    64   16   64 1  
    65   16   65 1  
    66   19   66 1  
    67   19   67 1  
    68   22   68 1  
    69   23   69 1  
    70   24   70 1  
    71   24   71 1  
    72   25   72 1  
    73   26   73 1  
    74   26   74 1  
    75   26   75 1  
    76   27   76 1  
    77   27   77 1  
    78   27   78 1  
    79   32   79 1  
    80   33   80 1  
    81   33   81 1  
    82   34   82 1  
    83   34   83 1  
    84   34   84 1  
    85   36   85 1  
    86   37   86 1  
    87   38   87 1  
    88   39   88 1  
    89   40   89 1  
@<TRIPOS>SUBSTRUCTURE
     1 PP8         1

