### 
### Created by X-TOOL on Fri Nov 18 17:07:23 2016
### 

@<TRIPOS>MOLECULE
4g0z_ligand
   37    39     1     0     0
SMALL
GAST_HUCK


@<TRIPOS>ATOM
      1 P          25.3970   34.6460   38.2740 P.3       1 MOL         0.2008
      2 O1P        25.9450   35.9870   38.6840 O.co2     1 MOL        -0.5537
      3 O2P        25.6930   34.3060   36.8300 O.co2     1 MOL        -0.5537
      4 O3P        23.9740   34.3570   38.6910 O.co2     1 MOL        -0.5537
      5 O5'        26.2720   33.5790   39.1110 O.3       1 MOL        -0.2734
      6 C5'        27.7030   33.5630   39.0420 C.3       1 MOL         0.1072
      7 C4'        28.1960   32.4700   39.9940 C.3       1 MOL         0.1183
      8 O4'        27.6480   31.2080   39.6170 O.3       1 MOL        -0.3347
      9 C3'        29.7110   32.3040   40.0060 C.3       1 MOL         0.1150
     10 O3'        30.2400   32.7950   41.2440 O.3       1 MOL        -0.3864
     11 C2'        29.9570   30.8160   39.9510 C.3       1 MOL         0.1407
     12 O2'        30.5730   30.4560   41.1850 O.3       1 MOL        -0.3835
     13 C1'        28.5890   30.1610   39.8460 C.3       1 MOL         0.2218
     14 N9         28.5250   29.1960   38.7200 N.pl3     1 MOL        -0.0954
     15 C8         28.1670   27.9010   38.8190 C.2       1 MOL         0.1855
     16 N7         28.1960   27.3410   37.5870 N.2       1 MOL        -0.1929
     17 C5         28.5690   28.3010   36.7090 C.2       1 MOL         0.2558
     18 C6         28.7640   28.3100   35.3350 C.2       1 MOL         0.2628
     19 O6         28.5840   27.2550   34.6870 O.2       1 MOL        -0.3594
     20 N1         29.1410   29.4480   34.7310 N.am      1 MOL        -0.2478
     21 C2         29.3250   30.5760   35.4360 C.cat     1 MOL         0.2041
     22 N2         29.7040   31.7150   34.8030 N.pl3     1 MOL        -0.3327
     23 N3         29.1440   30.5960   36.7780 N.pl3     1 MOL        -0.1901
     24 C4         28.7640   29.4710   37.4300 C.2       1 MOL         0.3268
     25 H1         28.1051   34.5393   39.3504 H         1 MOL         0.0639
     26 H2         28.0273   33.3408   38.0147 H         1 MOL         0.0639
     27 H3         27.8611   32.7262   41.0100 H         1 MOL         0.0650
     28 H4         30.1742   32.8213   39.1529 H         1 MOL         0.0648
     29 H5         29.8629   32.3045   41.9649 H         1 MOL         0.2100
     30 H6         30.5939   30.5401   39.0976 H         1 MOL         0.0677
     31 H7         31.3904   30.9307   41.2799 H         1 MOL         0.2101
     32 H8         28.3554   29.6380   40.7851 H         1 MOL         0.1021
     33 H9         27.8978   27.3878   39.7410 H         1 MOL         0.1823
     34 H10        29.2869   29.4559   33.7417 H         1 MOL         0.1819
     35 H11        29.8456   32.5811   35.3422 H         1 MOL         0.1774
     36 H12        29.8501   31.7134   33.7834 H         1 MOL         0.1774
     37 H13        29.2956   31.4685   37.3040 H         1 MOL         0.2519
@<TRIPOS>BOND
     1    1    2 ar 
     2    1    3 ar 
     3    1    4 ar 
     4    1    5 1  
     5    5    6 1  
     6    6    7 1  
     7    7    8 1  
     8    7    9 1  
     9    8   13 1  
    10    9   10 1  
    11    9   11 1  
    12   11   12 1  
    13   11   13 1  
    14   13   14 1  
    15   14   15 1  
    16   14   24 1  
    17   15   16 2  
    18   16   17 1  
    19   17   18 1  
    20   17   24 2  
    21   18   19 2  
    22   18   20 am 
    23   20   21 ar 
    24   21   22 ar 
    25   21   23 ar 
    26   23   24 1  
    27    6   25 1  
    28    6   26 1  
    29    7   27 1  
    30    9   28 1  
    31   10   29 1  
    32   11   30 1  
    33   12   31 1  
    34   13   32 1  
    35   15   33 1  
    36   20   34 1  
    37   22   35 1  
    38   22   36 1  
    39   23   37 1  
@<TRIPOS>SUBSTRUCTURE
     1 MOL         1

