### 
### Created by X-TOOL on Fri Nov 18 12:39:31 2016
### 

@<TRIPOS>MOLECULE
1fzq_ligand
   40    42     1     0     0
SMALL
GAST_HUCK


@<TRIPOS>ATOM
      1 PB         17.9210   10.4740   18.3760 P.3       1 GDP         0.2069
      2 O1B        18.6420   11.2950   17.3510 O.co2     1 GDP        -0.5891
      3 O2B        18.8180   10.1350   19.5810 O.co2     1 GDP        -0.5891
      4 O3B        16.6650   10.9840   19.0750 O.co2     1 GDP        -0.5891
      5 O3A        17.6190    8.9990   17.8500 O.3       1 GDP        -0.1548
      6 PA         17.9250    8.2340   16.5890 P.3       1 GDP         0.3276
      7 O1A        17.3680    8.8930   15.3360 O.co2     1 GDP        -0.5556
      8 O2A        19.4410    8.1780   16.3700 O.co2     1 GDP        -0.5556
      9 O5         17.2910    6.8880   16.8030 O.3       1 GDP        -0.2436
     10 C5         17.6560    6.0580   17.9000 C.3       1 GDP         0.1132
     11 C4         17.4270    4.5420   17.5430 C.3       1 GDP         0.1189
     12 O4         16.0510    4.3050   17.3330 O.3       1 GDP        -0.3363
     13 C3         18.1770    4.0960   16.2600 C.3       1 GDP         0.1150
     14 O3         18.6110    2.7510   16.5880 O.3       1 GDP        -0.3864
     15 C2         17.0730    4.1220   15.2110 C.3       1 GDP         0.1387
     16 O2         17.2330    3.2810   14.0550 O.3       1 GDP        -0.3836
     17 C1         15.8380    3.7480   16.0310 C.3       1 GDP         0.1992
     18 N9         14.6160    4.3720   15.4960 N.pl3     1 GDP        -0.2101
     19 C8         14.3320    5.7010   15.1900 C.2       1 GDP         0.0957
     20 N7         13.0850    5.8600   14.7230 N.2       1 GDP        -0.3235
     21 C5         12.4980    4.5420   14.7200 C.2       1 GDP         0.0926
     22 C6         11.1540    3.9440   14.3360 C.2       1 GDP         0.2135
     23 O6         10.2440    4.6550   13.9110 O.2       1 GDP        -0.4091
     24 N1         10.8920    2.6020   14.4520 N.am      1 GDP        -0.1839
     25 C2         11.8420    1.6750   14.9270 C.2       1 GDP         0.2340
     26 N2         11.5660    0.3730   15.0290 N.pl3     1 GDP        -0.2807
     27 N3         13.0880    2.2190   15.2850 N.2       1 GDP        -0.2765
     28 C4         13.4210    3.6740   15.1770 C.2       1 GDP         0.1159
     29 H1         17.0414    6.3212   18.7735 H         1 GDP         0.0648
     30 H2         18.7181    6.2177   18.1374 H         1 GDP         0.0648
     31 H3         17.7788    3.9316   18.3878 H         1 GDP         0.0651
     32 H4         19.0221    4.7443   15.9852 H         1 GDP         0.0648
     33 H5         19.0882    2.3852   15.8525 H         1 GDP         0.2100
     34 H6         16.9705    5.1519   14.8384 H         1 GDP         0.0676
     35 H7         18.0250    3.5281   13.5922 H         1 GDP         0.2101
     36 H8         15.7208    2.6551   16.0738 H         1 GDP         0.0998
     37 H9         15.0415    6.5175   15.3157 H         1 GDP         0.1179
     38 H10         9.9875    2.2669   14.1880 H         1 GDP         0.2515
     39 H11        12.2818   -0.2792   15.3798 H         1 GDP         0.1897
     40 H12        10.6372    0.0206   14.7569 H         1 GDP         0.1897
@<TRIPOS>BOND
     1    1    2 ar 
     2    1    3 ar 
     3    1    4 ar 
     4    1    5 1  
     5    5    6 1  
     6    6    7 ar 
     7    6    8 ar 
     8    6    9 1  
     9    9   10 1  
    10   10   11 1  
    11   11   12 1  
    12   11   13 1  
    13   12   17 1  
    14   13   14 1  
    15   13   15 1  
    16   15   16 1  
    17   15   17 1  
    18   17   18 1  
    19   18   19 1  
    20   18   28 1  
    21   19   20 2  
    22   20   21 1  
    23   21   22 1  
    24   21   28 2  
    25   22   23 2  
    26   22   24 am 
    27   24   25 1  
    28   25   26 1  
    29   25   27 2  
    30   27   28 1  
    31   10   29 1  
    32   10   30 1  
    33   11   31 1  
    34   13   32 1  
    35   14   33 1  
    36   15   34 1  
    37   16   35 1  
    38   17   36 1  
    39   19   37 1  
    40   24   38 1  
    41   26   39 1  
    42   26   40 1  
@<TRIPOS>SUBSTRUCTURE
     1 GDP         1

