### 
### Created by X-TOOL on Fri Nov 18 13:17:44 2016
### 

@<TRIPOS>MOLECULE
1lvu_ligand
   33    34     1     0     0
SMALL
GAST_HUCK


@<TRIPOS>ATOM
      1 N9         41.9590   61.6290  169.8140 N.pl3     1 MOL        -0.2248
      2 C8         40.8240   61.2750  169.1000 C.2       1 MOL         0.1046
      3 N7         40.6190   62.1460  168.1210 N.2       1 MOL        -0.3043
      4 C5         41.6380   63.0850  168.1910 C.ar      1 MOL         0.0915
      5 C6         41.9380   64.2710  167.3770 C.ar      1 MOL         0.1178
      6 N6         41.2860   64.6940  166.3950 N.pl3     1 MOL        -0.3173
      7 N1         43.1150   64.9640  167.8140 N.ar      1 MOL        -0.2565
      8 C2         43.9180   64.5650  168.9100 C.ar      1 MOL         0.1516
      9 N2         45.0170   65.3060  169.2260 N.pl3     1 MOL        -0.3115
     10 N3         43.6340   63.4590  169.6650 N.ar      1 MOL        -0.2647
     11 C4         42.4900   62.7730  169.2530 C.ar      1 MOL         0.1422
     12 C10        42.5020   60.9680  170.8980 C.3       1 MOL         0.0855
     13 C11        41.5010   60.6560  172.0270 C.3       1 MOL         0.0849
     14 C12        41.1270   61.9480  172.7460 C.3       1 MOL        -0.0360
     15 O13        42.1240   59.7420  172.9700 O.3       1 MOL        -0.3569
     16 P          42.7310   57.3840  173.3300 P.3       1 MOL         0.0846
     17 C14        41.7990   58.3710  172.6320 C.3       1 MOL         0.1181
     18 O2P        42.3210   55.9870  172.9760 O.co2     1 MOL        -0.5607
     19 O3P        44.1440   57.6140  172.8910 O.co2     1 MOL        -0.5607
     20 O1P        42.6390   57.5620  174.8100 O.co2     1 MOL        -0.5607
     21 H1         40.1953   60.4113  169.3115 H         1 MOL         0.1309
     22 H2         41.5946   65.5421  165.8986 H         1 MOL         0.1820
     23 H3         40.4411   64.1938  166.0837 H         1 MOL         0.1820
     24 H4         45.2508   66.1424  168.6722 H         1 MOL         0.1808
     25 H5         45.6139   65.0297  170.0186 H         1 MOL         0.1808
     26 H6         43.3047   61.5942  171.3147 H         1 MOL         0.0638
     27 H7         42.9257   60.0170  170.5428 H         1 MOL         0.0638
     28 H8         40.5969   60.1937  171.6040 H         1 MOL         0.0621
     29 H9         40.4124   61.7254  173.5520 H         1 MOL         0.0255
     30 H10        40.6672   62.6458  172.0307 H         1 MOL         0.0255
     31 H11        42.0316   62.4046  173.1739 H         1 MOL         0.0255
     32 H12        41.8910   58.2402  171.5437 H         1 MOL         0.0753
     33 H13        40.7637   58.1632  172.9401 H         1 MOL         0.0753
@<TRIPOS>BOND
     1    1    2 1  
     2    1   11 1  
     3   12    1 1  
     4    2    3 2  
     5    4    3 1  
     6    4    5 ar 
     7   11    4 ar 
     8    5    6 1  
     9    5    7 ar 
    10    8    7 ar 
    11    8    9 1  
    12   10    8 ar 
    13   11   10 ar 
    14   13   12 1  
    15   13   14 1  
    16   15   13 1  
    17   17   15 1  
    18   16   20 ar 
    19   16   19 ar 
    20   16   18 ar 
    21   17   16 1  
    22    2   21 1  
    23    6   22 1  
    24    6   23 1  
    25    9   24 1  
    26    9   25 1  
    27   12   26 1  
    28   12   27 1  
    29   13   28 1  
    30   14   29 1  
    31   14   30 1  
    32   14   31 1  
    33   17   32 1  
    34   17   33 1  
@<TRIPOS>SUBSTRUCTURE
     1 MOL         1

