### 
### Created by X-TOOL on Fri Nov 18 12:05:13 2016
### 

@<TRIPOS>MOLECULE
1mai_ligand
   33    33     1     0     0
SMALL
GAST_HUCK


@<TRIPOS>ATOM
      1 C1         33.7280   18.0400    3.9670 C.3       1 I3P         0.1460
      2 C2         34.2380   18.5040    5.3380 C.3       1 I3P         0.1168
      3 C3         33.2000   18.2340    6.4080 C.3       1 I3P         0.1172
      4 C4         32.8800   16.7410    6.4420 C.3       1 I3P         0.1503
      5 C5         32.3710   16.2780    5.0670 C.3       1 I3P         0.1506
      6 C6         33.4170   16.5470    3.9940 C.3       1 I3P         0.1215
      7 O1         34.6770   18.2020    2.8400 O.3       1 I3P        -0.2676
      8 O2         35.4470   17.8420    5.6740 O.3       1 I3P        -0.3861
      9 O3         33.7120   18.6410    7.6590 O.3       1 I3P        -0.3861
     10 O4         31.9210   16.4820    7.5520 O.3       1 I3P        -0.2672
     11 O5         32.1700   14.8320    5.0980 O.3       1 I3P        -0.2672
     12 O6         32.9650   16.1200    2.7150 O.3       1 I3P        -0.3858
     13 P1         35.0110   19.6120    2.1900 P.3       1 I3P         0.2013
     14 O11        36.2810   19.4270    1.4430 O.co2     1 I3P        -0.5537
     15 O12        35.1080   20.5220    3.3630 O.co2     1 I3P        -0.5537
     16 O13        33.7950   19.8250    1.4150 O.co2     1 I3P        -0.5537
     17 P4         32.2600   15.7940    8.9670 P.3       1 I3P         0.2013
     18 O41        33.2000   14.7450    8.4870 O.co2     1 I3P        -0.5537
     19 O42        32.9150   16.8820    9.7050 O.co2     1 I3P        -0.5537
     20 O43        31.0040   15.3330    9.6140 O.co2     1 I3P        -0.5537
     21 P5         30.9400   14.0400    4.4450 P.3       1 I3P         0.2013
     22 O51        31.2210   12.6660    4.9280 O.co2     1 I3P        -0.5537
     23 O52        29.7500   14.7350    5.0200 O.co2     1 I3P        -0.5537
     24 O53        31.1870   14.2760    3.0180 O.co2     1 I3P        -0.5537
     25 H1         32.8130   18.6078    3.7427 H         1 I3P         0.0703
     26 H2         34.4280   19.5865    5.2932 H         1 I3P         0.0650
     27 H3         32.2836   18.7998    6.1840 H         1 I3P         0.0650
     28 H4         33.8059   16.1880    6.6586 H         1 I3P         0.0706
     29 H5         31.4313   16.7951    4.8229 H         1 I3P         0.0706
     30 H6         34.3337   15.9934    4.2452 H         1 I3P         0.0654
     31 H7         35.7455   18.1425    6.5243 H         1 I3P         0.2100
     32 H8         33.0650   18.4740    8.3342 H         1 I3P         0.2100
     33 H9         32.7876   15.1871    2.7383 H         1 I3P         0.2100
@<TRIPOS>BOND
     1    1    7 1  
     2    1    6 1  
     3    1    2 1  
     4    2    8 1  
     5    2    3 1  
     6    3    9 1  
     7    3    4 1  
     8    4   10 1  
     9    4    5 1  
    10    5   11 1  
    11    5    6 1  
    12    6   12 1  
    13   11   21 1  
    14   21   24 ar 
    15   21   23 ar 
    16   21   22 ar 
    17   10   17 1  
    18   17   20 ar 
    19   17   19 ar 
    20   17   18 ar 
    21    7   13 1  
    22   13   16 ar 
    23   13   15 ar 
    24   13   14 ar 
    25    1   25 1  
    26    2   26 1  
    27    3   27 1  
    28    4   28 1  
    29    5   29 1  
    30    6   30 1  
    31    8   31 1  
    32    9   32 1  
    33   12   33 1  
@<TRIPOS>SUBSTRUCTURE
     1 I3P         1

