### 
### Created by X-TOOL on Fri Nov 18 15:03:58 2016
### 

@<TRIPOS>MOLECULE
2vmc_ligand
   30    30     1     0     0
SMALL
GAST_HUCK


@<TRIPOS>ATOM
      1 O           9.8490    9.8330  123.4620 O.3       1 A2G        -0.3410
      2 C1         11.1540   10.1560  122.9750 C.3       1 A2G         0.1823
      3 O1         11.3510   11.5750  123.0240 O.3       1 A2G        -0.3651
      4 C2         11.3170    9.6660  121.5380 C.3       1 A2G         0.1208
      5 N2         12.6050   10.0740  120.9860 N.am      1 A2G        -0.2766
      6 C3         10.1750   10.1330  120.6020 C.3       1 A2G         0.1110
      7 O3         10.2690    9.5750  119.2780 O.3       1 A2G        -0.3867
      8 C4          8.8000    9.8220  121.2070 C.3       1 A2G         0.1116
      9 O4          8.5320    8.4190  121.1580 O.3       1 A2G        -0.3865
     10 C5          8.7690   10.3350  122.6620 C.3       1 A2G         0.1130
     11 C6          7.4520   10.0070  123.3540 C.3       1 A2G         0.0730
     12 O6          7.4320   10.7420  124.5960 O.3       1 A2G        -0.3924
     13 C7         13.7080    9.3390  121.1950 C.2       1 A2G         0.1733
     14 O7         13.6820    8.2830  121.8350 O.2       1 A2G        -0.3974
     15 C8         14.9660    9.9080  120.5910 C.3       1 A2G         0.0257
     16 H1         11.9060    9.6646  123.6099 H         1 A2G         0.0932
     17 H2         10.6977   12.0031  122.4832 H         1 A2G         0.2126
     18 H3         11.2938    8.5666  121.5644 H         1 A2G         0.0633
     19 H4         12.6663   10.9126  120.4447 H         1 A2G         0.1857
     20 H5         10.2600   11.2255  120.5056 H         1 A2G         0.0645
     21 H6          9.5469    9.8937  118.7493 H         1 A2G         0.2100
     22 H7          8.0270   10.3469  120.6266 H         1 A2G         0.0647
     23 H8          8.5434    8.1269  120.2541 H         1 A2G         0.2100
     24 H9          8.8656   11.4299  122.6200 H         1 A2G         0.0647
     25 H10         7.3890    8.9271  123.5534 H         1 A2G         0.0584
     26 H11         6.6063   10.3129  122.7207 H         1 A2G         0.0584
     27 H12         6.6212   10.5610  125.0568 H         1 A2G         0.2095
     28 H13        15.8129    9.2418  120.8124 H         1 A2G         0.0467
     29 H14        15.1606   10.9027  121.0184 H         1 A2G         0.0467
     30 H15        14.8429    9.9947  119.5014 H         1 A2G         0.0467
@<TRIPOS>BOND
     1    1    2 1  
     2    1   10 1  
     3    2    3 1  
     4    2    4 1  
     5    4    5 1  
     6    4    6 1  
     7    5   13 am 
     8    6    7 1  
     9    6    8 1  
    10    8    9 1  
    11    8   10 1  
    12   10   11 1  
    13   11   12 1  
    14   13   14 2  
    15   13   15 1  
    16    2   16 1  
    17    3   17 1  
    18    4   18 1  
    19    5   19 1  
    20    6   20 1  
    21    7   21 1  
    22    8   22 1  
    23    9   23 1  
    24   10   24 1  
    25   11   25 1  
    26   11   26 1  
    27   12   27 1  
    28   15   28 1  
    29   15   29 1  
    30   15   30 1  
@<TRIPOS>SUBSTRUCTURE
     1 A2G         1

