2vmc_ligand

Created by X-TOOL on Fri Nov 18 15:03:58 2016
 30 30  0  0  0  0  0  0  0  0999 V2000
    9.8490    9.8330  123.4620  O 0  0  0  1  0  2
   11.1540   10.1560  122.9750  C 0  0  0  2  0  4
   11.3510   11.5750  123.0240  O 0  0  0  2  0  2
   11.3170    9.6660  121.5380  C 0  0  0  2  0  4
   12.6050   10.0740  120.9860  N 0  0  0  2  0  3
   10.1750   10.1330  120.6020  C 0  0  0  2  0  4
   10.2690    9.5750  119.2780  O 0  0  0  2  0  2
    8.8000    9.8220  121.2070  C 0  0  0  2  0  4
    8.5320    8.4190  121.1580  O 0  0  0  2  0  2
    8.7690   10.3350  122.6620  C 0  0  0  2  0  4
    7.4520   10.0070  123.3540  C 0  0  0  3  0  4
    7.4320   10.7420  124.5960  O 0  0  0  2  0  2
   13.7080    9.3390  121.1950  C 0  0  0  1  0  3
   13.6820    8.2830  121.8350  O 0  0  0  1  0  1
   14.9660    9.9080  120.5910  C 0  0  0  4  0  4
   11.9060    9.6646  123.6099  H 0  0  0  1  0  1
   10.6977   12.0031  122.4832  H 0  0  0  1  0  1
   11.2938    8.5666  121.5644  H 0  0  0  1  0  1
   12.6663   10.9126  120.4447  H 0  0  0  1  0  1
   10.2600   11.2255  120.5056  H 0  0  0  1  0  1
    9.5469    9.8937  118.7493  H 0  0  0  1  0  1
    8.0270   10.3469  120.6266  H 0  0  0  1  0  1
    8.5434    8.1269  120.2541  H 0  0  0  1  0  1
    8.8656   11.4299  122.6200  H 0  0  0  1  0  1
    7.3890    8.9271  123.5534  H 0  0  0  1  0  1
    6.6063   10.3129  122.7207  H 0  0  0  1  0  1
    6.6212   10.5610  125.0568  H 0  0  0  1  0  1
   15.8129    9.2418  120.8124  H 0  0  0  1  0  1
   15.1606   10.9027  121.0184  H 0  0  0  1  0  1
   14.8429    9.9947  119.5014  H 0  0  0  1  0  1
  1  2  1  0  0  1
  1 10  1  0  0  1
  2  3  1  0  0  2
  2  4  1  0  0  1
  4  5  1  0  0  2
  4  6  1  0  0  1
  5 13  1  0  0  2
  6  7  1  0  0  2
  6  8  1  0  0  1
  8  9  1  0  0  2
  8 10  1  0  0  1
 10 11  1  0  0  2
 11 12  1  0  0  2
 13 14  2  0  0  2
 13 15  1  0  0  2
  2 16  1  0  0  2
  3 17  1  0  0  2
  4 18  1  0  0  2
  5 19  1  0  0  2
  6 20  1  0  0  2
  7 21  1  0  0  2
  8 22  1  0  0  2
  9 23  1  0  0  2
 10 24  1  0  0  2
 11 25  1  0  0  2
 11 26  1  0  0  2
 12 27  1  0  0  2
 15 28  1  0  0  2
 15 29  1  0  0  2
 15 30  1  0  0  2
M  END
> <MOLECULAR_FORMULA>
C8H15NO6

> <MOLECULAR_WEIGHT>
221.1

> <NUM_HB_ATOMS>
7  

> <NUM_ROTOR>
2  

> <XLOGP2>
-2.50

$$$$
