### 
### Created by X-TOOL on Fri Nov 18 15:14:42 2016
### 

@<TRIPOS>MOLECULE
3d7k_ligand
   64    66     1     0     0
SMALL
GAST_HUCK


@<TRIPOS>ATOM
      1 PA        -42.2150   27.5620    2.3910 P.3       1 D7K         0.3276
      2 O1A       -42.3150   28.1250    0.9880 O.co2     1 D7K        -0.5556
      3 O2A       -43.5480   27.4800    3.1060 O.co2     1 D7K        -0.5556
      4 O1B       -39.9660   30.1870    4.1660 O.co2     1 D7K        -0.5891
      5 PB        -39.7850   28.9100    3.3560 P.3       1 D7K         0.2069
      6 O2B       -39.4380   28.9750    1.8780 O.co2     1 D7K        -0.5891
      7 O3B       -38.9240   27.9050    4.0850 O.co2     1 D7K        -0.5891
      8 O3A       -41.3470   28.4800    3.3670 O.3       1 D7K        -0.1548
      9 O01       -41.4670   26.1270    2.2910 O.3       1 D7K        -0.2451
     10 C01       -41.2470   25.2450    3.4150 C.3       1 D7K         0.0875
     11 C05       -40.2310   24.1190    3.0910 C.3       1 D7K        -0.0077
     12 C04       -40.2730   22.9130    4.0380 C.2       1 D7K        -0.0227
     13 C03       -40.8120   21.7020    3.7980 C.2       1 D7K         0.0015
     14 CM4       -41.4390   21.3140    2.4850 C.3       1 D7K        -0.0282
     15 S1        -39.6280   23.0190    5.5530 S.3       1 D7K        -0.1230
     16 C02       -40.3310   21.5200    6.1340 C.3       1 D7K         0.1098
     17 N3        -40.7610   20.8830    4.8820 N.pl3     1 D7K        -0.3080
     18 C18       -41.1370   19.4870    5.0520 C.3       1 D7K         0.0602
     19 C19       -42.6280   19.3790    5.0410 C.ar      1 D7K         0.0402
     20 C20       -43.2680   18.8130    3.9480 C.ar      1 D7K         0.0082
     21 C21       -43.3700   19.8010    6.1330 C.ar      1 D7K         0.1231
     22 N22       -42.8150   20.3350    7.2490 N.pl3     1 D7K        -0.3186
     23 N23       -44.7040   19.6820    6.1090 N.ar      1 D7K        -0.2610
     24 C24       -45.3400   19.1310    5.0490 C.ar      1 D7K         0.0758
     25 N25       -44.6150   18.6960    3.9950 N.ar      1 D7K        -0.2938
     26 CM2       -46.8460   19.0220    5.1100 C.3       1 D7K        -0.0029
     27 O12       -38.3280   18.5820    6.1150 O.co2     1 D7K        -0.6244
     28 P8        -37.9970   19.8670    6.8490 P.3       1 D7K         0.1251
     29 O11       -37.1530   20.8820    6.1090 O.co2     1 D7K        -0.6244
     30 O9        -37.3840   19.3910    8.2860 O.3       1 D7K        -0.2891
     31 C10       -36.3040   20.0550    8.9420 C.3       1 D7K         0.0701
     32 C7        -39.5140   20.7820    7.2480 C.3       1 D7K         0.1790
     33 O7        -40.3750   19.7820    7.7870 O.3       1 D7K        -0.4047
     34 C2        -39.2730   21.8210    8.3180 C.ar      1 D7K         0.0010
     35 C3        -40.1950   21.9470    9.3710 C.ar      1 D7K        -0.0354
     36 C4        -40.0080   22.9270   10.3620 C.ar      1 D7K        -0.0323
     37 C5        -38.9060   23.8060   10.2890 C.ar      1 D7K        -0.0340
     38 C6        -37.9940   23.6850    9.2390 C.ar      1 D7K        -0.0323
     39 C1        -38.1790   22.6990    8.2680 C.ar      1 D7K        -0.0354
     40 H1        -42.2059   24.7855    3.6968 H         1 D7K         0.0634
     41 H2        -40.8619   25.8366    4.2586 H         1 D7K         0.0634
     42 H3        -39.2198   24.5499    3.1326 H         1 D7K         0.0359
     43 H4        -40.4346   23.7591    2.0717 H         1 D7K         0.0359
     44 H5        -41.3499   22.1495    1.7751 H         1 D7K         0.0360
     45 H6        -42.5018   21.0779    2.6418 H         1 D7K         0.0360
     46 H7        -40.9233   20.4313    2.0790 H         1 D7K         0.0360
     47 H8        -41.2625   21.7859    6.6551 H         1 D7K         0.0621
     48 H9        -40.7475   19.1144    6.0109 H         1 D7K         0.0654
     49 H10       -40.7181   18.8895    4.2289 H         1 D7K         0.0654
     50 H11       -42.7069   18.4754    3.0842 H         1 D7K         0.0791
     51 H12       -43.4156   20.6319    8.0313 H         1 D7K         0.1789
     52 H13       -41.7928   20.4437    7.3144 H         1 D7K         0.1789
     53 H14       -47.2057   19.4415    6.0611 H         1 D7K         0.0449
     54 H15       -47.1402   17.9643    5.0412 H         1 D7K         0.0449
     55 H16       -47.2883   19.5809    4.2722 H         1 D7K         0.0449
     56 H17       -36.0800   19.5428    9.8894 H         1 D7K         0.0586
     57 H18       -36.5854   21.0985    9.1470 H         1 D7K         0.0586
     58 H19       -35.4144   20.0353    8.2953 H         1 D7K         0.0586
     59 H20       -40.5209   19.1065    7.1351 H         1 D7K         0.1979
     60 H21       -41.0532   21.2866    9.4195 H         1 D7K         0.0852
     61 H22       -40.7111   23.0075   11.1831 H         1 D7K         0.0698
     62 H23       -38.7685   24.5712   11.0445 H         1 D7K         0.0856
     63 H24       -37.1441   24.3551    9.1777 H         1 D7K         0.0698
     64 H25       -37.4631   22.6097    7.4589 H         1 D7K         0.0852
@<TRIPOS>BOND
     1    1    2 ar 
     2    1    3 ar 
     3    1    8 1  
     4    9    1 1  
     5    5    4 ar 
     6    5    6 ar 
     7    5    7 ar 
     8    8    5 1  
     9   10    9 1  
    10   11   10 1  
    11   12   11 1  
    12   13   12 2  
    13   15   12 1  
    14   13   14 1  
    15   17   13 1  
    16   16   15 1  
    17   16   17 1  
    18   32   16 1  
    19   17   18 1  
    20   18   19 1  
    21   19   20 ar 
    22   19   21 ar 
    23   20   25 ar 
    24   21   22 1  
    25   21   23 ar 
    26   23   24 ar 
    27   25   24 ar 
    28   24   26 1  
    29   28   27 ar 
    30   28   29 ar 
    31   28   30 1  
    32   28   32 1  
    33   30   31 1  
    34   32   33 1  
    35   32   34 1  
    36   34   35 ar 
    37   34   39 ar 
    38   35   36 ar 
    39   36   37 ar 
    40   37   38 ar 
    41   38   39 ar 
    42   10   40 1  
    43   10   41 1  
    44   11   42 1  
    45   11   43 1  
    46   14   44 1  
    47   14   45 1  
    48   14   46 1  
    49   16   47 1  
    50   18   48 1  
    51   18   49 1  
    52   20   50 1  
    53   22   51 1  
    54   22   52 1  
    55   26   53 1  
    56   26   54 1  
    57   26   55 1  
    58   31   56 1  
    59   31   57 1  
    60   31   58 1  
    61   33   59 1  
    62   35   60 1  
    63   36   61 1  
    64   37   62 1  
    65   38   63 1  
    66   39   64 1  
@<TRIPOS>SUBSTRUCTURE
     1 D7K         1

