### 
### Created by X-TOOL on Fri Nov 18 14:46:24 2016
### 

@<TRIPOS>MOLECULE
2e2p_ligand
   39    41     1     0     0
SMALL
GAST_HUCK


@<TRIPOS>ATOM
      1 PB          6.6670   -5.0820   28.7580 P.3       1 ADP         0.2069
      2 O1B         6.8300   -4.5560   27.3790 O.co2     1 ADP        -0.5891
      3 O2B         7.3750   -4.2660   29.7990 O.co2     1 ADP        -0.5891
      4 O3B         5.1520   -5.3240   29.1150 O.co2     1 ADP        -0.5891
      5 PA          8.3280   -7.2220   27.7080 P.3       1 ADP         0.3276
      6 O1A         9.2910   -6.2070   27.1310 O.co2     1 ADP        -0.5556
      7 O2A         8.9700   -8.4390   28.3270 O.co2     1 ADP        -0.5556
      8 O3A         7.3980   -6.5140   28.7590 O.3       1 ADP        -0.1548
      9 O5'         7.3590   -7.5360   26.4880 O.3       1 ADP        -0.2436
     10 C5'         6.6750   -8.8270   26.3900 C.3       1 ADP         0.1132
     11 C4'         5.7130   -8.8750   25.2120 C.3       1 ADP         0.1189
     12 O4'         6.3840   -9.3200   24.0110 O.3       1 ADP        -0.3364
     13 C3'         4.4580   -9.7750   25.3390 C.3       1 ADP         0.1149
     14 O3'         3.3240   -8.9820   24.9460 O.3       1 ADP        -0.3864
     15 C2'         4.7480  -10.9770   24.4310 C.3       1 ADP         0.1385
     16 O2'         3.6140  -11.4300   23.6680 O.3       1 ADP        -0.3836
     17 C1'         5.8340  -10.5090   23.4760 C.3       1 ADP         0.2010
     18 N9          6.8770  -11.5650   23.2290 N.pl3     1 ADP        -0.1919
     19 C8          7.7410  -12.1380   24.1060 C.2       1 ADP         0.1123
     20 N7          8.5360  -13.0580   23.5230 N.2       1 ADP        -0.2958
     21 C5          8.1390  -13.0560   22.2210 C.ar      1 ADP         0.1045
     22 C6          8.5990  -13.8130   21.0660 C.ar      1 ADP         0.1298
     23 N6          9.5290  -14.7100   21.0600 N.pl3     1 ADP        -0.3152
     24 N1          7.9260  -13.5100   19.8890 N.ar      1 ADP        -0.2698
     25 C2          6.9100  -12.5620   19.8030 C.ar      1 ADP         0.0533
     26 N3          6.4810  -11.8590   20.8550 N.ar      1 ADP        -0.2714
     27 C4          7.1200  -12.1290   22.0220 C.ar      1 ADP         0.1613
     28 H1          6.1095   -9.0005   27.3174 H         1 ADP         0.0648
     29 H2          7.4280   -9.6192   26.2659 H         1 ADP         0.0648
     30 H3          5.3622   -7.8438   25.0588 H         1 ADP         0.0651
     31 H4          4.3173  -10.1187   26.3744 H         1 ADP         0.0648
     32 H5          2.5343   -9.5059   25.0125 H         1 ADP         0.2100
     33 H6          5.1136  -11.8140   25.0439 H         1 ADP         0.0676
     34 H7          3.3083  -10.7256   23.1086 H         1 ADP         0.2101
     35 H8          5.3682  -10.2724   22.5080 H         1 ADP         0.0996
     36 H9          7.7868  -11.8827   25.1637 H         1 ADP         0.1349
     37 H10         9.7777  -15.1881   20.1823 H         1 ADP         0.1820
     38 H11        10.0217  -14.9469   21.9330 H         1 ADP         0.1820
     39 H12         6.4462  -12.3864   18.8391 H         1 ADP         0.0996
@<TRIPOS>BOND
     1    1    2 ar 
     2    1    3 ar 
     3    1    4 ar 
     4    8    1 1  
     5    5    6 ar 
     6    5    7 ar 
     7    5    8 1  
     8    5    9 1  
     9    9   10 1  
    10   10   11 1  
    11   11   12 1  
    12   11   13 1  
    13   12   17 1  
    14   13   14 1  
    15   13   15 1  
    16   15   16 1  
    17   15   17 1  
    18   17   18 1  
    19   18   19 1  
    20   18   27 1  
    21   19   20 2  
    22   20   21 1  
    23   21   22 ar 
    24   21   27 ar 
    25   22   23 1  
    26   22   24 ar 
    27   24   25 ar 
    28   25   26 ar 
    29   26   27 ar 
    30   10   28 1  
    31   10   29 1  
    32   11   30 1  
    33   13   31 1  
    34   14   32 1  
    35   15   33 1  
    36   16   34 1  
    37   17   35 1  
    38   19   36 1  
    39   23   37 1  
    40   23   38 1  
    41   25   39 1  
@<TRIPOS>SUBSTRUCTURE
     1 ADP         1

