### 
### Created by X-TOOL on Fri Nov 18 16:34:26 2016
### 

@<TRIPOS>MOLECULE
3s8l_ligand
   61    62     1     0     0
SMALL
GAST_HUCK


@<TRIPOS>ATOM
      1 C          -7.6070    7.3370    2.5360 C.2       1 ACE         0.1753
      2 O          -8.7420    6.8410    2.6570 O.2       1 ACE        -0.3972
      3 CH3        -6.5650    7.1910    3.6600 C.3       1 ACE         0.0258
      4 N          -7.1510    8.0100    1.4600 N.am      1 ACE        -0.2628
      5 CA         -8.0370    8.2760    0.2830 C.3       1 ACE         0.1465
      6 C          -7.3120    7.8820   -1.0000 C.2       1 ACE         0.2045
      7 O          -6.1290    8.1460   -1.1450 O.2       1 ACE        -0.3944
      8 CB         -8.4450    9.7580    0.2140 C.3       1 ACE         0.0400
      9 CG         -9.1420   10.1790    1.5110 C.ar      1 ACE        -0.0004
     10 CD1        -8.3550   10.6420    2.5650 C.ar      1 ACE        -0.0239
     11 CD2       -10.5280   10.0390    1.6510 C.ar      1 ACE        -0.0239
     12 CE1        -8.9970   10.9830    3.7390 C.ar      1 ACE         0.0115
     13 CE2       -11.1700   10.3790    2.8710 C.ar      1 ACE         0.0115
     14 CZ        -10.3600   10.8280    3.9110 C.ar      1 ACE         0.1728
     15 OH        -10.8110   11.2050    5.1700 O.3       1 ACE        -0.2040
     16 P         -12.3330   10.8370    5.6620 P.3       1 ACE         0.1348
     17 O1P       -13.2890   11.9080    5.1990 O.co2     1 ACE        -0.6653
     18 O2P       -12.6420    9.4970    5.3780 O.co2     1 ACE        -0.6653
     19 O3P       -12.1400   10.9950    7.2600 O.co2     1 ACE        -0.6653
     20 N          -8.0460    7.2350   -1.8660 N.am      1 ACE        -0.2738
     21 O          -5.7230    7.7910   -4.6080 O.2       1 ACE        -0.3419
     22 CA         -7.4410    6.7530   -3.1180 C.3       1 ACE         0.1330
     23 C          -6.7550    7.9220   -3.9050 C.2       1 ACE         0.2267
     24 CB1        -6.6510    5.4500   -2.9350 C.3       1 ACE        -0.0199
     25 CG         -7.8830    4.6110   -3.3570 C.3       1 ACE        -0.0501
     26 CB2        -8.5110    5.9290   -3.8700 C.3       1 ACE        -0.0199
     27 N          -7.3880    9.0610   -3.8110 N.am      1 ACE        -0.2608
     28 CA         -6.9860   10.2650   -4.5460 C.3       1 ACE         0.1474
     29 C          -6.2890   11.2690   -3.6320 C.2       1 ACE         0.2017
     30 O          -6.1690   12.4150   -3.9950 O.2       1 ACE        -0.3945
     31 CB         -8.2030   10.8520   -5.3480 C.3       1 ACE         0.0774
     32 CG         -9.3510   11.4230   -4.4330 C.2       1 ACE         0.1781
     33 OD1        -9.3730   11.1260   -3.2220 O.2       1 ACE        -0.3970
     34 ND2       -10.1680   12.3260   -4.9860 N.am      1 ACE        -0.3007
     35 N          -5.7300   10.8580   -2.4750 N.am      1 ACE        -0.2988
     36 H1         -5.6329    7.6943    3.3635 H         1 ACE         0.0467
     37 H2         -6.3649    6.1241    3.8382 H         1 ACE         0.0467
     38 H3         -6.9526    7.6503    4.5813 H         1 ACE         0.0467
     39 H4         -6.2059    8.3366    1.4482 H         1 ACE         0.1885
     40 H5         -8.9466    7.6654    0.3820 H         1 ACE         0.0840
     41 H6         -9.1326    9.9060   -0.6318 H         1 ACE         0.0584
     42 H7         -7.5463   10.3753    0.0683 H         1 ACE         0.0584
     43 H8         -7.2792   10.7309    2.4663 H         1 ACE         0.0703
     44 H9        -11.1166    9.6675    0.8200 H         1 ACE         0.0703
     45 H10        -8.4105   11.3872    4.5561 H         1 ACE         0.0736
     46 H11       -12.2442   10.2928    2.9878 H         1 ACE         0.0736
     47 H12        -9.0141    7.0682   -1.6790 H         1 ACE         0.1839
     48 H13        -6.3231    5.2699   -1.9006 H         1 ACE         0.0277
     49 H14        -5.7916    5.3514   -3.6145 H         1 ACE         0.0277
     50 H15        -8.4239    4.1376   -2.5244 H         1 ACE         0.0264
     51 H16        -7.6838    3.8622   -4.1378 H         1 ACE         0.0264
     52 H17        -8.4761    6.0441   -4.9634 H         1 ACE         0.0277
     53 H18        -9.5379    6.1017   -3.5157 H         1 ACE         0.0277
     54 H19        -8.1848    9.1145   -3.2091 H         1 ACE         0.1891
     55 H20        -6.2396    9.9551   -5.2922 H         1 ACE         0.0828
     56 H21        -8.6243   10.0517   -5.9741 H         1 ACE         0.0551
     57 H22        -7.8350   11.6652   -5.9908 H         1 ACE         0.0551
     58 H23       -10.9137   12.7206   -4.4492 H         1 ACE         0.1814
     59 H24       -10.0332   12.6066   -5.9363 H         1 ACE         0.1814
     60 H25        -5.2739   11.5179   -1.8779 H         1 ACE         0.1815
     61 H26        -5.7717    9.8934   -2.2145 H         1 ACE         0.1815
@<TRIPOS>BOND
     1    1    2 2  
     2    1    3 1  
     3    4    1 am 
     4    5    4 1  
     5    6    5 1  
     6    5    8 1  
     7    6    7 2  
     8   20    6 am 
     9    8    9 1  
    10    9   10 ar 
    11    9   11 ar 
    12   10   12 ar 
    13   11   13 ar 
    14   12   14 ar 
    15   13   14 ar 
    16   14   15 1  
    17   15   16 1  
    18   16   17 ar 
    19   16   18 ar 
    20   16   19 ar 
    21   22   20 1  
    22   23   21 2  
    23   22   23 1  
    24   22   24 1  
    25   22   26 1  
    26   23   27 am 
    27   24   25 1  
    28   25   26 1  
    29   27   28 1  
    30   28   29 1  
    31   28   31 1  
    32   29   30 2  
    33   29   35 am 
    34   31   32 1  
    35   32   33 2  
    36   32   34 am 
    37    3   36 1  
    38    3   37 1  
    39    3   38 1  
    40    4   39 1  
    41    5   40 1  
    42    8   41 1  
    43    8   42 1  
    44   10   43 1  
    45   11   44 1  
    46   12   45 1  
    47   13   46 1  
    48   20   47 1  
    49   24   48 1  
    50   24   49 1  
    51   25   50 1  
    52   25   51 1  
    53   26   52 1  
    54   26   53 1  
    55   27   54 1  
    56   28   55 1  
    57   31   56 1  
    58   31   57 1  
    59   34   58 1  
    60   34   59 1  
    61   35   60 1  
    62   35   61 1  
@<TRIPOS>SUBSTRUCTURE
     1 ACE         1

