### 
### Created by X-TOOL on Fri Nov 18 11:54:11 2016
### 

@<TRIPOS>MOLECULE
1atr_ligand
   39    41     1     0     0
SMALL
GAST_HUCK


@<TRIPOS>ATOM
      1 PB         17.6640   29.5160   16.4650 P.3       1 ADP         0.2069
      2 O1B        17.3040   29.9120   17.8520 O.co2     1 ADP        -0.5891
      3 O2B        18.7360   28.5200   16.4050 O.co2     1 ADP        -0.5891
      4 O3B        16.4940   29.1230   15.6610 O.co2     1 ADP        -0.5891
      5 PA         19.5220   31.4600   15.1380 P.3       1 ADP         0.3276
      6 O1A        20.5160   30.3580   15.2030 O.co2     1 ADP        -0.5556
      7 O2A        19.3000   32.1620   13.8450 O.co2     1 ADP        -0.5556
      8 O3A        18.1510   30.9090   15.8280 O.3       1 ADP        -0.1548
      9 O5'        19.7630   32.5300   16.2290 O.3       1 ADP        -0.2436
     10 C5'        18.9980   33.6940   16.2380 C.3       1 ADP         0.1132
     11 C4'        19.3640   34.5520   17.4210 C.3       1 ADP         0.1189
     12 O4'        20.5810   35.1190   16.9730 O.3       1 ADP        -0.3364
     13 C3'        18.4780   35.7970   17.7970 C.3       1 ADP         0.1149
     14 O3'        18.6370   35.9420   19.1990 O.3       1 ADP        -0.3864
     15 C2'        19.1400   36.9210   17.0330 C.3       1 ADP         0.1385
     16 O2'        18.9060   38.1850   17.6830 O.3       1 ADP        -0.3836
     17 C1'        20.5930   36.4980   17.2240 C.3       1 ADP         0.2010
     18 N9         21.4930   37.1880   16.2800 N.pl3     1 ADP        -0.1919
     19 C8         21.5360   37.3100   14.9100 C.2       1 ADP         0.1123
     20 N7         22.4270   38.1730   14.4750 N.2       1 ADP        -0.2958
     21 C5         23.0070   38.6320   15.6660 C.ar      1 ADP         0.1045
     22 C6         24.0140   39.5520   15.8950 C.ar      1 ADP         0.1298
     23 N6         24.5300   40.1990   14.8540 N.pl3     1 ADP        -0.3152
     24 N1         24.3810   39.7860   17.1730 N.ar      1 ADP        -0.2698
     25 C2         23.7640   39.1250   18.1310 C.ar      1 ADP         0.0533
     26 N3         22.7920   38.2290   18.0420 N.ar      1 ADP        -0.2714
     27 C4         22.4540   38.0330   16.7390 C.ar      1 ADP         0.1613
     28 H1         17.9326   33.4274   16.2991 H         1 ADP         0.0648
     29 H2         19.1826   34.2566   15.3110 H         1 ADP         0.0648
     30 H3         19.4872   33.9184   18.3117 H         1 ADP         0.0651
     31 H4         17.4197   35.6805   17.5207 H         1 ADP         0.0648
     32 H5         18.1244   36.6832   19.4997 H         1 ADP         0.2100
     33 H6         18.8354   36.9624   15.9768 H         1 ADP         0.0676
     34 H7         17.9714   38.3501   17.7248 H         1 ADP         0.2101
     35 H8         20.9217   36.7039   18.2533 H         1 ADP         0.0996
     36 H9         20.8884   36.7413   14.2443 H         1 ADP         0.1349
     37 H10        25.2810   40.8892   14.9973 H         1 ADP         0.1820
     38 H11        24.1787   40.0099   13.9044 H         1 ADP         0.1820
     39 H12        24.1001   39.3461   19.1376 H         1 ADP         0.0996
@<TRIPOS>BOND
     1    1    2 ar 
     2    1    3 ar 
     3    1    4 ar 
     4    8    1 1  
     5    5    6 ar 
     6    5    7 ar 
     7    5    8 1  
     8    5    9 1  
     9    9   10 1  
    10   10   11 1  
    11   11   12 1  
    12   11   13 1  
    13   12   17 1  
    14   13   14 1  
    15   13   15 1  
    16   15   16 1  
    17   15   17 1  
    18   17   18 1  
    19   18   19 1  
    20   18   27 1  
    21   19   20 2  
    22   20   21 1  
    23   21   22 ar 
    24   21   27 ar 
    25   22   23 1  
    26   22   24 ar 
    27   24   25 ar 
    28   25   26 ar 
    29   26   27 ar 
    30   10   28 1  
    31   10   29 1  
    32   11   30 1  
    33   13   31 1  
    34   14   32 1  
    35   15   33 1  
    36   16   34 1  
    37   17   35 1  
    38   19   36 1  
    39   23   37 1  
    40   23   38 1  
    41   25   39 1  
@<TRIPOS>SUBSTRUCTURE
     1 ADP         1

