### 
### Created by X-TOOL on Fri Nov 18 14:40:36 2016
### 

@<TRIPOS>MOLECULE
2ot1_ligand
   36    38     1     0     0
SMALL
GAST_HUCK


@<TRIPOS>ATOM
      1 CAF        47.5660   38.8070   58.9000 C.ar      1 N3P        -0.0490
      2 CAG        47.7180   39.8330   59.8280 C.ar      1 N3P        -0.0485
      3 CAH        42.2150   47.6450   55.8350 C.ar      1 N3P        -0.0453
      4 CAI        42.7480   47.1460   53.4850 C.ar      1 N3P        -0.0453
      5 CAJ        42.9230   46.4980   56.2400 C.ar      1 N3P        -0.0204
      6 CAK        43.4560   45.9990   53.8890 C.ar      1 N3P        -0.0204
      7 CAL        46.8800   39.0400   57.7110 C.ar      1 N3P        -0.0425
      8 CAM        47.1820   41.0910   59.5710 C.ar      1 N3P        -0.0414
      9 CAN        45.6550   40.5310   56.2680 C.ar      1 N3P         0.0007
     10 CAO        45.9590   42.5810   58.1220 C.ar      1 N3P        -0.0206
     11 CAR        44.6960   44.2380   56.7460 C.2       1 N3P         0.2542
     12 CAS        42.1370   47.9530   54.4660 C.ar      1 N3P         0.0416
     13 CAT        43.5390   45.6740   55.2670 C.ar      1 N3P         0.0975
     14 CAU        45.1150   41.7900   56.0050 C.ar      1 N3P         0.1624
     15 CAV        45.2670   42.8120   56.9330 C.ar      1 N3P         0.1135
     16 CAW        46.3450   40.2990   57.4500 C.ar      1 N3P        -0.0035
     17 CAX        46.4970   41.3270   58.3830 C.ar      1 N3P        -0.0007
     18 NAP        44.2150   44.5400   55.5330 N.am      1 N3P        -0.2136
     19 OAA        44.6990   45.0510   57.6900 O.2       1 N3P        -0.3633
     20 OAB        43.0150   39.9850   55.0530 O.co2     1 N3P        -0.6686
     21 OAC        42.9550   41.3510   52.8880 O.co2     1 N3P        -0.6686
     22 OAD        45.0400   39.9430   53.4620 O.co2     1 N3P        -0.6686
     23 OAQ        44.5030   42.0690   54.8210 O.3       1 N3P        -0.2243
     24 CLA        41.2500   49.3570   53.9730 Cl        1 N3P        -0.0683
     25 PAY        43.8320   40.7850   54.1140 P.3       1 N3P         0.1197
     26 H1         47.9816   37.8266   59.1029 H         1 N3P         0.0676
     27 H2         48.2547   39.6518   60.7522 H         1 N3P         0.0673
     28 H3         41.7361   48.2825   56.5694 H         1 N3P         0.0632
     29 H4         42.6736   47.4051   52.4351 H         1 N3P         0.0632
     30 H5         42.9964   46.2465   57.2919 H         1 N3P         0.0605
     31 H6         43.9357   45.3668   53.1505 H         1 N3P         0.0605
     32 H7         46.7623   38.2409   56.9880 H         1 N3P         0.0714
     33 H8         47.2981   41.8878   60.2967 H         1 N3P         0.0731
     34 H9         45.5354   39.7308   55.5466 H         1 N3P         0.0677
     35 H10        46.0772   43.3813   58.8435 H         1 N3P         0.0790
     36 H11        44.3654   43.8908   54.7874 H         1 N3P         0.2499
@<TRIPOS>BOND
     1    1    2 ar 
     2    7    1 ar 
     3    8    2 ar 
     4    5    3 ar 
     5    3   12 ar 
     6    6    4 ar 
     7    4   12 ar 
     8   13    5 ar 
     9   13    6 ar 
    10   16    7 ar 
    11   17    8 ar 
    12   14    9 ar 
    13    9   16 ar 
    14   15   10 ar 
    15   10   17 ar 
    16   15   11 1  
    17   11   18 am 
    18   11   19 2  
    19   12   24 1  
    20   18   13 1  
    21   14   15 ar 
    22   23   14 1  
    23   16   17 ar 
    24   25   20 ar 
    25   25   21 ar 
    26   25   22 ar 
    27   23   25 1  
    28    1   26 1  
    29    2   27 1  
    30    3   28 1  
    31    4   29 1  
    32    5   30 1  
    33    6   31 1  
    34    7   32 1  
    35    8   33 1  
    36    9   34 1  
    37   10   35 1  
    38   18   36 1  
@<TRIPOS>SUBSTRUCTURE
     1 N3P         1

