### 
### Created by X-TOOL on Fri Nov 18 17:59:14 2016
### 

@<TRIPOS>MOLECULE
4u69_ligand
   26    25     1     0     0
SMALL
GAST_HUCK


@<TRIPOS>ATOM
      1 O2         22.3340   -2.2570   12.6010 O.co2     1 Q07        -0.5585
      2 P          21.7360   -2.6270   11.2900 P.3       1 Q07         0.1105
      3 O          20.2920   -3.1470   11.3050 O.co2     1 Q07        -0.5585
      4 O1         21.8200   -1.2710   10.4660 O.co2     1 Q07        -0.5585
      5 C5         22.8680   -3.7470   10.3920 C.3       1 Q07         0.0467
      6 N          24.0170   -2.9660    9.8980 N.4       1 Q07         0.2330
      7 C3         23.2980   -4.9780   11.2000 C.3       1 Q07         0.0148
      8 C4         22.1820   -5.5700   12.1330 C.3       1 Q07        -0.0558
      9 C2         23.9020   -6.0210   10.2860 C.3       1 Q07        -0.0442
     10 C1         24.6700   -7.1530   11.0280 C.3       1 Q07        -0.0554
     11 C          24.1270   -8.4900   10.6310 C.3       1 Q07        -0.0653
     12 H1         22.3232   -4.1247    9.5143 H         1 Q07         0.1052
     13 H2         24.6481   -3.5747    9.4008 H         1 Q07         0.2011
     14 H3         24.4989   -2.5472   10.6780 H         1 Q07         0.2011
     15 H4         23.6895   -2.2423    9.2775 H         1 Q07         0.2011
     16 H5         24.1026   -4.6413   11.8703 H         1 Q07         0.0368
     17 H6         22.5786   -6.4446   12.6696 H         1 Q07         0.0235
     18 H7         21.3181   -5.8743   11.5238 H         1 Q07         0.0235
     19 H8         21.8677   -4.8059   12.8592 H         1 Q07         0.0235
     20 H9         24.6037   -5.5176    9.6046 H         1 Q07         0.0270
     21 H10        23.0902   -6.4801    9.7028 H         1 Q07         0.0270
     22 H11        24.5528   -7.0208   12.1137 H         1 Q07         0.0263
     23 H12        25.7369   -7.1013   10.7653 H         1 Q07         0.0263
     24 H13        24.6771   -9.2813   11.1613 H         1 Q07         0.0230
     25 H14        24.2445   -8.6260    9.5458 H         1 Q07         0.0230
     26 H15        23.0604   -8.5455   10.8942 H         1 Q07         0.0230
@<TRIPOS>BOND
     1    1    2 ar 
     2    2    3 ar 
     3    2    4 ar 
     4    2    5 1  
     5    5    6 1  
     6    5    7 1  
     7    7    8 1  
     8    7    9 1  
     9    9   10 1  
    10   10   11 1  
    11    5   12 1  
    12    6   13 1  
    13    6   14 1  
    14    6   15 1  
    15    7   16 1  
    16    8   17 1  
    17    8   18 1  
    18    8   19 1  
    19    9   20 1  
    20    9   21 1  
    21   10   22 1  
    22   10   23 1  
    23   11   24 1  
    24   11   25 1  
    25   11   26 1  
@<TRIPOS>SUBSTRUCTURE
     1 Q07         1

