### 
### Created by X-TOOL on Fri Nov 18 12:31:51 2016
### 

@<TRIPOS>MOLECULE
1d2e_ligand
   40    42     1     0     0
SMALL
GAST_HUCK


@<TRIPOS>ATOM
      1 PB         15.0110   -9.2550   51.5850 P.3       1 GDP         0.2069
      2 O1B        13.9500   -8.2270   51.4310 O.co2     1 GDP        -0.5891
      3 O2B        16.3970   -8.8090   51.3940 O.co2     1 GDP        -0.5891
      4 O3B        14.9260   -9.9600   52.8640 O.co2     1 GDP        -0.5891
      5 O3A        14.7190  -10.3520   50.4300 O.3       1 GDP        -0.1548
      6 PA         15.7050  -11.0870   49.3880 P.3       1 GDP         0.3276
      7 O1A        16.7180  -11.7660   50.1830 O.co2     1 GDP        -0.5556
      8 O2A        16.1670  -10.1300   48.3710 O.co2     1 GDP        -0.5556
      9 O5         14.6570  -12.0580   48.6940 O.3       1 GDP        -0.2436
     10 C5         14.0320  -13.1030   49.4630 C.3       1 GDP         0.1132
     11 C4         13.6600  -14.2930   48.5890 C.3       1 GDP         0.1189
     12 O4         12.7790  -13.7980   47.5370 O.3       1 GDP        -0.3363
     13 C3         14.8410  -14.9450   47.8800 C.3       1 GDP         0.1150
     14 O3         14.5130  -16.3390   47.8370 O.3       1 GDP        -0.3864
     15 C2         14.7960  -14.2460   46.5010 C.3       1 GDP         0.1387
     16 O2         15.4360  -15.0050   45.4610 O.3       1 GDP        -0.3836
     17 C1         13.3110  -14.0890   46.2500 C.3       1 GDP         0.1992
     18 N9         13.0310  -12.9640   45.3100 N.pl3     1 GDP        -0.2101
     19 C8         13.5230  -11.6600   45.2960 C.2       1 GDP         0.0957
     20 N7         13.0810  -10.9130   44.3050 N.2       1 GDP        -0.3235
     21 C5         12.2370  -11.7830   43.6180 C.2       1 GDP         0.0926
     22 C6         11.4500  -11.6020   42.4490 C.2       1 GDP         0.2135
     23 O6         11.3410  -10.5700   41.7410 O.2       1 GDP        -0.4091
     24 N1         10.7290  -12.7430   42.0810 N.am      1 GDP        -0.1839
     25 C2         10.7530  -13.9570   42.7630 C.2       1 GDP         0.2340
     26 N2         10.0130  -14.9500   42.2960 N.pl3     1 GDP        -0.2807
     27 N3         11.4940  -14.1540   43.8660 N.2       1 GDP        -0.2765
     28 C4         12.2010  -13.0460   44.2380 C.2       1 GDP         0.1159
     29 H1         13.1200  -12.7051   49.9319 H         1 GDP         0.0648
     30 H2         14.7299  -13.4379   50.2445 H         1 GDP         0.0648
     31 H3         13.1462  -15.0452   49.2056 H         1 GDP         0.0651
     32 H4         15.8039  -14.7816   48.3862 H         1 GDP         0.0648
     33 H5         13.7023  -16.4577   47.3561 H         1 GDP         0.2100
     34 H6         15.2812  -13.2606   46.5602 H         1 GDP         0.0676
     35 H7         15.0028  -15.8457   45.3717 H         1 GDP         0.2101
     36 H8         12.8833  -15.0189   45.8471 H         1 GDP         0.0998
     37 H9         14.2189  -11.2875   46.0462 H         1 GDP         0.1179
     38 H10        10.1525  -12.6823   41.2662 H         1 GDP         0.2515
     39 H11        10.0092  -15.8603   42.7780 H         1 GDP         0.1897
     40 H12         9.4409  -14.8125   41.4506 H         1 GDP         0.1897
@<TRIPOS>BOND
     1    1    2 ar 
     2    1    3 ar 
     3    1    4 ar 
     4    1    5 1  
     5    5    6 1  
     6    6    7 ar 
     7    6    8 ar 
     8    6    9 1  
     9    9   10 1  
    10   10   11 1  
    11   11   12 1  
    12   11   13 1  
    13   12   17 1  
    14   13   14 1  
    15   13   15 1  
    16   15   16 1  
    17   15   17 1  
    18   17   18 1  
    19   18   19 1  
    20   18   28 1  
    21   19   20 2  
    22   20   21 1  
    23   21   22 1  
    24   21   28 2  
    25   22   23 2  
    26   22   24 am 
    27   24   25 1  
    28   25   26 1  
    29   25   27 2  
    30   27   28 1  
    31   10   29 1  
    32   10   30 1  
    33   11   31 1  
    34   13   32 1  
    35   14   33 1  
    36   15   34 1  
    37   16   35 1  
    38   17   36 1  
    39   19   37 1  
    40   24   38 1  
    41   26   39 1  
    42   26   40 1  
@<TRIPOS>SUBSTRUCTURE
     1 GDP         1

