### 
### Created by X-TOOL on Fri Nov 18 14:45:31 2016
### 

@<TRIPOS>MOLECULE
2clk_ligand
   15    14     1     0     0
SMALL
GAST_HUCK


@<TRIPOS>ATOM
      1 O1         46.9860   27.2870   15.2650 O.2       1 G3H        -0.3721
      2 C1         47.9020   28.1380   14.8630 C.2       1 G3H         0.1303
      3 C2         48.3840   28.1090   13.4640 C.3       1 G3H         0.1530
      4 O2         49.1880   29.3230   13.4700 O.3       1 G3H        -0.3700
      5 C3         47.2500   28.2580   12.4260 C.3       1 G3H         0.1200
      6 O1P        47.7060   28.0570   11.0750 O.3       1 G3H        -0.2710
      7 O2P        46.7000   30.1770   10.1680 O.co2     1 G3H        -0.5537
      8 O3P        48.3290   28.6780    8.8370 O.co2     1 G3H        -0.5537
      9 O4P        49.1550   30.1180   10.7850 O.co2     1 G3H        -0.5537
     10 P          47.9900   29.3520   10.1650 P.3       1 G3H         0.2010
     11 H1         48.3084   28.8677   15.5617 H         1 G3H         0.1377
     12 H2         48.9747   27.2060   13.2505 H         1 G3H         0.0854
     13 H3         49.5779   29.4475   12.6127 H         1 G3H         0.2136
     14 H4         46.8278   29.2704   12.5083 H         1 G3H         0.0665
     15 H5         46.4691   27.5158   12.6483 H         1 G3H         0.0665
@<TRIPOS>BOND
     1    1    2 2  
     2    2    3 1  
     3    3    4 1  
     4    3    5 1  
     5    5    6 1  
     6    6   10 1  
     7   10    7 ar 
     8   10    8 ar 
     9   10    9 ar 
    10    2   11 1  
    11    3   12 1  
    12    4   13 1  
    13    5   14 1  
    14    5   15 1  
@<TRIPOS>SUBSTRUCTURE
     1 G3H         1

