### 
### Created by X-TOOL on Fri Nov 18 13:02:01 2016
### 

@<TRIPOS>MOLECULE
1m0q_ligand
   34    34     1     0     0
SMALL
GAST_HUCK


@<TRIPOS>ATOM
      1 C          15.8650   51.0490   19.8310 C.3       1 EPC         0.0846
      2 N2         16.0090   51.2470   18.4280 N.2       1 EPC        -0.3207
      3 N1         17.1620   52.5670   13.6290 N.ar      1 EPC        -0.3082
      4 C2         16.0370   52.8770   14.4570 C.ar      1 EPC         0.0567
      5 C2A        14.9410   53.8310   13.9430 C.3       1 EPC        -0.0186
      6 C3         15.9660   52.3420   15.7510 C.ar      1 EPC         0.1344
      7 O1         14.8760   52.6630   16.5590 O.3       1 EPC        -0.3217
      8 C4         17.0930   51.4470   16.2780 C.ar      1 EPC         0.0602
      9 C4A        17.0100   50.9300   17.7030 C.2       1 EPC         0.0185
     10 C5         18.2030   51.1800   15.4230 C.ar      1 EPC         0.0196
     11 C6         18.1880   51.7820   14.0290 C.ar      1 EPC         0.0031
     12 C5A        19.4040   50.3410   15.8680 C.3       1 EPC         0.1176
     13 O2         18.9320   49.0270   16.0370 O.3       1 EPC        -0.2621
     14 P1         20.0160   48.0930   16.6400 P.3       1 EPC         0.2042
     15 O3         19.3910   46.7170   16.8530 O.co2     1 EPC        -0.5536
     16 O4         21.2570   47.9760   15.8240 O.co2     1 EPC        -0.5536
     17 O5         20.4740   48.7930   17.9260 O.co2     1 EPC        -0.5536
     18 P2         14.2540   51.0870   20.2920 P.3       1 EPC         0.0723
     19 O7         13.5500   52.3430   19.6510 O.co2     1 EPC        -0.5614
     20 O8         13.6400   49.7540   19.8510 O.co2     1 EPC        -0.5614
     21 O6         14.1400   51.0740   21.8940 O.co2     1 EPC        -0.5614
     22 CA         16.6140   49.7340   20.3460 C.3       1 EPC        -0.0365
     23 H1         16.3559   51.9017   20.3228 H         1 EPC         0.0615
     24 H2         15.1762   54.1388   12.9135 H         1 EPC         0.0386
     25 H3         14.8953   54.7195   14.5899 H         1 EPC         0.0386
     26 H4         13.9694   53.3156   13.9587 H         1 EPC         0.0386
     27 H5         15.1814   53.1196   17.3341 H         1 EPC         0.2533
     28 H6         17.7982   50.2939   18.1031 H         1 EPC         0.1083
     29 H7         19.0072   51.5807   13.3483 H         1 EPC         0.0658
     30 H8         19.8056   50.7256   16.8171 H         1 EPC         0.0800
     31 H9         20.1909   50.3663   15.0998 H         1 EPC         0.0800
     32 H10        17.6638   49.7579   20.0183 H         1 EPC         0.0255
     33 H11        16.1200   48.8438   19.9295 H         1 EPC         0.0255
     34 H12        16.5737   49.6955   21.4446 H         1 EPC         0.0255
@<TRIPOS>BOND
     1    1   22 1  
     2    1   18 1  
     3    1    2 1  
     4    2    9 2  
     5    9    8 1  
     6    8   10 ar 
     7    8    6 ar 
     8    6    7 1  
     9    6    4 ar 
    10    4    5 1  
    11    4    3 ar 
    12    3   11 ar 
    13   11   10 ar 
    14   10   12 1  
    15   12   13 1  
    16   13   14 1  
    17   14   17 ar 
    18   14   16 ar 
    19   14   15 ar 
    20   18   21 ar 
    21   18   20 ar 
    22   18   19 ar 
    23    1   23 1  
    24    5   24 1  
    25    5   25 1  
    26    5   26 1  
    27    7   27 1  
    28    9   28 1  
    29   11   29 1  
    30   12   30 1  
    31   12   31 1  
    32   22   32 1  
    33   22   33 1  
    34   22   34 1  
@<TRIPOS>SUBSTRUCTURE
     1 EPC         1

