### 
### Created by X-TOOL on Wed Dec 13 14:18:49 2017
### 

@<TRIPOS>MOLECULE
5fog_ligand
   50    52     1     0     0
SMALL
GAST_HUCK


@<TRIPOS>ATOM
      1 C         -24.2870    6.3140   27.2970 C.2       1 VRT         0.2249
      2 N         -24.3810    8.4350   28.4350 N.4       1 VRT         0.2379
      3 O         -25.2150    5.6240   26.8990 O.2       1 VRT        -0.3909
      4 N1        -20.3150   11.2800   21.9920 N.2       1 VRT        -0.2627
      5 C2        -19.8150   10.9110   23.3360 C.2       1 VRT         0.1410
      6 N3        -20.3300    9.6300   23.8950 N.pl3     1 VRT        -0.1944
      7 C4        -21.2170    8.8120   23.2410 C.2       1 VRT         0.2312
      8 C5        -21.7040    9.2190   21.8970 C.2       1 VRT         0.0960
      9 C6        -21.2090   10.5100   21.3090 C.2       1 VRT         0.0417
     10 N6        -21.6530   10.8870   20.0910 N.2       1 VRT        -0.4365
     11 N7        -22.5650    8.2480   21.4990 N.2       1 VRT        -0.3147
     12 C8        -22.6260    7.3080   22.4770 C.2       1 VRT         0.1053
     13 N9        -21.8310    7.6440   23.5240 N.pl3     1 VRT        -0.1740
     14 CA        -24.2980    6.9970   28.6500 C.3       1 VRT         0.0649
     15 CB        -25.4380    6.5960   29.6070 C.3       1 VRT         0.0076
     16 CD        -24.3010    4.4540   30.3720 C.3       1 VRT        -0.0649
     17 CG        -25.5950    5.1140   29.9520 C.3       1 VRT        -0.0486
     18 C1'       -21.6360    6.8700   24.7870 C.3       1 VRT         0.2018
     19 N10       -23.1640    6.5240   26.5970 N.am      1 VRT        -0.2712
     20 C2'       -22.8460    6.0230   25.2530 C.3       1 VRT         0.1262
     21 C3'       -22.3680    4.5590   25.2400 C.3       1 VRT         0.1116
     22 O3'       -22.7570    3.7380   26.3610 O.3       1 VRT        -0.3867
     23 C4'       -20.8420    4.6750   25.1440 C.3       1 VRT         0.1133
     24 O4'       -20.5350    5.9710   24.6240 O.3       1 VRT        -0.3365
     25 C5'       -20.1910    3.6220   24.2520 C.3       1 VRT         0.0730
     26 O5'       -18.7810    3.8570   24.1130 O.3       1 VRT        -0.3924
     27 H1        -24.3895    8.9079   29.3252 H         1 VRT         0.2015
     28 H2        -25.2271    8.6512   27.9316 H         1 VRT         0.2015
     29 H3        -23.5838    8.7413   27.8995 H         1 VRT         0.2015
     30 H4        -19.1129   11.5385   23.8830 H         1 VRT         0.1619
     31 H5        -20.0011    9.3411   24.8273 H         1 VRT         0.2513
     32 H6        -22.3140   10.3101   19.5947 H         1 VRT         0.0404
     33 H7        -23.2323    6.4047   22.4276 H         1 VRT         0.1225
     34 H8        -23.3465    6.7598   29.1484 H         1 VRT         0.1098
     35 H9        -26.3817    6.9275   29.1494 H         1 VRT         0.0345
     36 H10       -25.2785    7.1370   30.5514 H         1 VRT         0.0345
     37 H11       -24.4879    3.3951   30.6039 H         1 VRT         0.0230
     38 H12       -23.9039    4.9602   31.2642 H         1 VRT         0.0230
     39 H13       -23.5698    4.5265   29.5534 H         1 VRT         0.0230
     40 H14       -25.9825    4.5891   29.0664 H         1 VRT         0.0266
     41 H15       -26.3166    5.0228   30.7772 H         1 VRT         0.0266
     42 H16       -21.4007    7.5911   25.5836 H         1 VRT         0.1002
     43 H17       -22.4637    7.0846   27.0389 H         1 VRT         0.1859
     44 H18       -23.7121    6.1439   24.5858 H         1 VRT         0.0639
     45 H19       -22.7591    4.0734   24.3338 H         1 VRT         0.0645
     46 H20       -23.7049    3.6992   26.4098 H         1 VRT         0.2100
     47 H21       -20.4217    4.5762   26.1557 H         1 VRT         0.0647
     48 H22       -20.6597    3.6551   23.2574 H         1 VRT         0.0584
     49 H23       -20.3466    2.6285   24.6978 H         1 VRT         0.0584
     50 H24       -18.6405    4.7124   23.7244 H         1 VRT         0.2095
@<TRIPOS>BOND
     1    1    3 2  
     2    1   14 1  
     3   19    1 am 
     4   14    2 1  
     5    5    4 2  
     6    9    4 1  
     7    6    5 1  
     8    7    6 1  
     9    7    8 2  
    10   13    7 1  
    11    8    9 1  
    12   11    8 1  
    13    9   10 2  
    14   12   11 2  
    15   13   12 1  
    16   18   13 1  
    17   14   15 1  
    18   15   17 1  
    19   17   16 1  
    20   20   18 1  
    21   18   24 1  
    22   19   20 1  
    23   20   21 1  
    24   21   22 1  
    25   21   23 1  
    26   23   24 1  
    27   23   25 1  
    28   25   26 1  
    29    2   27 1  
    30    2   28 1  
    31    2   29 1  
    32    5   30 1  
    33    6   31 1  
    34   10   32 1  
    35   12   33 1  
    36   14   34 1  
    37   15   35 1  
    38   15   36 1  
    39   16   37 1  
    40   16   38 1  
    41   16   39 1  
    42   17   40 1  
    43   17   41 1  
    44   18   42 1  
    45   19   43 1  
    46   20   44 1  
    47   21   45 1  
    48   22   46 1  
    49   23   47 1  
    50   25   48 1  
    51   25   49 1  
    52   26   50 1  
@<TRIPOS>SUBSTRUCTURE
     1 VRT         1

