### 
### Created by X-TOOL on Fri Nov 18 17:24:45 2016
### 

@<TRIPOS>MOLECULE
4l50_ligand
   32    31     1     0     0
SMALL
GAST_HUCK


@<TRIPOS>ATOM
      1 O3P       -42.5900  -11.4290   12.1430 O.co2     1 D8X        -0.5537
      2 P         -42.9490  -11.8310   13.5230 P.3       1 D8X         0.2008
      3 O1P       -44.2800  -11.2740   13.8920 O.co2     1 D8X        -0.5537
      4 O2P       -42.9520  -13.4060   13.6120 O.co2     1 D8X        -0.5537
      5 O5        -41.8280  -11.2070   14.5410 O.3       1 D8X        -0.2735
      6 C5        -40.5120  -11.6960   14.5510 C.3       1 D8X         0.1083
      7 C4        -39.6420  -10.6840   13.8590 C.3       1 D8X         0.1425
      8 O4        -39.8580  -10.8450   12.4790 O.3       1 D8X        -0.3851
      9 C3        -38.1400  -10.8580   14.1480 C.3       1 D8X         0.2609
     10 O3        -37.6490  -12.0990   13.7770 O.3       1 D8X        -0.3629
     11 O3'       -37.9650  -10.7290   15.5490 O.3       1 D8X        -0.3629
     12 C2        -37.2990   -9.7250   13.5200 C.2       1 D8X         0.1884
     13 O2        -37.3420   -8.5840   13.9950 O.2       1 D8X        -0.3269
     14 C1        -36.3060  -10.0750   12.4640 C.3       1 D8X         0.0301
     15 C1'       -36.0220   -8.7830   11.6810 C.3       1 D8X        -0.0312
     16 C2'       -35.1010   -9.1150   10.5130 C.3       1 D8X        -0.0606
     17 C22       -35.3480   -7.6880   12.5540 C.3       1 D8X        -0.0606
     18 H1        -40.4655  -12.6569   14.0176 H         1 D8X         0.0638
     19 H2        -40.1722  -11.8353   15.5879 H         1 D8X         0.0638
     20 H3        -39.9458   -9.6746   14.1733 H         1 D8X         0.0658
     21 H4        -40.7753  -10.6939   12.2834 H         1 D8X         0.2099
     22 H5        -36.7278  -12.1542   14.0026 H         1 D8X         0.2100
     23 H6        -38.2944   -9.8839   15.8317 H         1 D8X         0.2100
     24 H7        -36.7202  -10.8419   11.7930 H         1 D8X         0.0491
     25 H8        -35.3802  -10.4512   12.9236 H         1 D8X         0.0491
     26 H9        -36.9739   -8.3885   11.2960 H         1 D8X         0.0320
     27 H10       -34.8882   -8.1992    9.9421 H         1 D8X         0.0234
     28 H11       -35.5906   -9.8502    9.8574 H         1 D8X         0.0234
     29 H12       -34.1595   -9.5352   10.8964 H         1 D8X         0.0234
     30 H13       -36.0039   -7.4395   13.4014 H         1 D8X         0.0234
     31 H14       -35.1777   -6.7874   11.9458 H         1 D8X         0.0234
     32 H15       -34.3854   -8.0620   12.9328 H         1 D8X         0.0234
@<TRIPOS>BOND
     1    1    2 ar 
     2    2    3 ar 
     3    2    4 ar 
     4    2    5 1  
     5    5    6 1  
     6    6    7 1  
     7    7    8 1  
     8    7    9 1  
     9    9   10 1  
    10    9   11 1  
    11    9   12 1  
    12   12   13 2  
    13   12   14 1  
    14   14   15 1  
    15   15   16 1  
    16   15   17 1  
    17    6   18 1  
    18    6   19 1  
    19    7   20 1  
    20    8   21 1  
    21   10   22 1  
    22   11   23 1  
    23   14   24 1  
    24   14   25 1  
    25   15   26 1  
    26   16   27 1  
    27   16   28 1  
    28   16   29 1  
    29   17   30 1  
    30   17   31 1  
    31   17   32 1  
@<TRIPOS>SUBSTRUCTURE
     1 D8X         1

