### 
### Created by X-TOOL on Fri Nov 18 12:29:30 2016
### 

@<TRIPOS>MOLECULE
1qk3_ligand
   36    38     1     0     0
SMALL
GAST_HUCK


@<TRIPOS>ATOM
      1 P          60.5190  108.3350  114.3770 P.3       1 MOL         0.2008
      2 O1P        59.0930  108.5740  114.6540 O.co2     1 MOL        -0.5537
      3 O2P        60.8490  108.3850  112.8960 O.co2     1 MOL        -0.5537
      4 O3P        61.4530  109.2730  115.2070 O.co2     1 MOL        -0.5537
      5 O5'        60.9550  106.8580  114.8660 O.3       1 MOL        -0.2734
      6 C5'        61.5070  106.6510  116.1800 C.3       1 MOL         0.1072
      7 C4'        61.8940  105.2010  116.4460 C.3       1 MOL         0.1182
      8 O4'        60.6160  104.4950  116.6290 O.3       1 MOL        -0.3364
      9 C3'        62.5890  104.3960  115.3670 C.3       1 MOL         0.1149
     10 O3'        63.9940  104.5490  115.3850 O.3       1 MOL        -0.3864
     11 C2'        62.2710  102.9660  115.7810 C.3       1 MOL         0.1387
     12 O2'        63.1130  102.5420  116.8670 O.3       1 MOL        -0.3836
     13 C1'        60.8240  103.1110  116.2570 C.3       1 MOL         0.1992
     14 N9         59.7550  102.7170  115.3190 N.pl3     1 MOL        -0.2101
     15 C8         58.9860  103.4930  114.4960 C.2       1 MOL         0.0957
     16 N7         58.0820  102.8470  113.8100 N.2       1 MOL        -0.3235
     17 C5         58.2410  101.5220  114.2800 C.2       1 MOL         0.0926
     18 C6         57.4920  100.3820  113.9100 C.2       1 MOL         0.2135
     19 O6         56.5620  100.3110  113.1170 O.2       1 MOL        -0.4091
     20 N1         57.9230   99.2500  114.6210 N.am      1 MOL        -0.1839
     21 C2         58.9540   99.2570  115.5350 C.2       1 MOL         0.2340
     22 N2         59.1760   98.0480  116.0990 N.pl3     1 MOL        -0.2807
     23 N3         59.6720  100.3310  115.8870 N.2       1 MOL        -0.2765
     24 C4         59.2490  101.4350  115.2060 C.2       1 MOL         0.1159
     25 H1         60.7582  106.9556  116.9260 H         1 MOL         0.0639
     26 H2         62.4050  107.2775  116.2849 H         1 MOL         0.0639
     27 H3         62.5094  105.1698  117.3572 H         1 MOL         0.0650
     28 H4         62.1939  104.6404  114.3699 H         1 MOL         0.0648
     29 H5         64.3862  103.9342  114.7762 H         1 MOL         0.2100
     30 H6         62.3605  102.2654  114.9377 H         1 MOL         0.0676
     31 H7         62.8079  101.7039  117.1942 H         1 MOL         0.2101
     32 H8         60.7141  102.4808  117.1519 H         1 MOL         0.0998
     33 H9         59.1181  104.5712  114.4185 H         1 MOL         0.1179
     34 H10        57.4517   98.3841  114.4532 H         1 MOL         0.2515
     35 H11        59.9241   97.9353  116.7979 H         1 MOL         0.1897
     36 H12        58.5969   97.2399  115.8296 H         1 MOL         0.1897
@<TRIPOS>BOND
     1    1    4 ar 
     2    1    5 1  
     3    1    3 ar 
     4    1    2 ar 
     5    5    6 1  
     6    6    7 1  
     7    7    9 1  
     8    7    8 1  
     9    8   13 1  
    10   13   14 1  
    11   13   11 1  
    12   11   12 1  
    13   11    9 1  
    14    9   10 1  
    15   14   15 1  
    16   14   24 1  
    17   24   23 1  
    18   24   17 2  
    19   17   18 1  
    20   17   16 1  
    21   16   15 2  
    22   18   19 2  
    23   18   20 am 
    24   20   21 am 
    25   21   22 1  
    26   21   23 2  
    27    6   25 1  
    28    6   26 1  
    29    7   27 1  
    30    9   28 1  
    31   10   29 1  
    32   11   30 1  
    33   12   31 1  
    34   13   32 1  
    35   15   33 1  
    36   20   34 1  
    37   22   35 1  
    38   22   36 1  
@<TRIPOS>SUBSTRUCTURE
     1 MOL         1

