### 
### Created by X-TOOL on Wed Dec 13 14:17:48 2017
### 

@<TRIPOS>MOLECULE
5d6j_ligand
   43    45     1     0     0
SMALL
GAST_HUCK


@<TRIPOS>ATOM
      1 PG        -35.7240    3.2630   15.7010 P.3       1 ATP         0.1879
      2 O1G       -36.4620    4.3620   14.9720 O.co2     1 ATP        -0.6091
      3 O2G       -34.9710    3.6850   16.9420 O.co2     1 ATP        -0.6091
      4 O3G       -36.6040    2.0510   15.9050 O.co2     1 ATP        -0.6091
      5 PB        -33.7510    3.7080   13.6470 P.3       1 ATP         0.3553
      6 O1B       -32.3270    3.2290   13.5400 O.co2     1 ATP        -0.5652
      7 O2B       -34.0370    5.1510   13.9700 O.co2     1 ATP        -0.5652
      8 O3B       -34.5450    2.7670   14.7040 O.3       1 ATP        -0.1546
      9 PA        -34.1830    3.7590   10.7780 P.3       1 ATP         0.3266
     10 O1A       -33.8880    2.5450    9.9360 O.co2     1 ATP        -0.5692
     11 O2A       -35.2980    4.6920   10.3670 O.co2     1 ATP        -0.5692
     12 O3A       -34.5160    3.2670   12.2870 O.3       1 ATP        -0.1171
     13 O5'       -32.8100    4.5780   10.9120 O.3       1 ATP        -0.2441
     14 C5'       -32.7250    5.9770   10.6570 C.3       1 ATP         0.1131
     15 C4'       -31.7270    6.5540   11.6630 C.3       1 ATP         0.1189
     16 O4'       -30.3800    6.2550   11.2720 O.3       1 ATP        -0.3364
     17 C3'       -31.7540    8.0730   11.7800 C.3       1 ATP         0.1149
     18 O3'       -32.8060    8.5550   12.6250 O.3       1 ATP        -0.3864
     19 C2'       -30.3880    8.3450   12.3680 C.3       1 ATP         0.1385
     20 O2'       -30.4260    8.0950   13.7730 O.3       1 ATP        -0.3836
     21 C1'       -29.5000    7.2860   11.7380 C.3       1 ATP         0.2010
     22 N9        -28.8360    7.9640   10.6080 N.pl3     1 ATP        -0.1919
     23 C8        -29.2360    7.9410    9.3190 C.2       1 ATP         0.1123
     24 N7        -28.4140    8.6930    8.5460 N.2       1 ATP        -0.2958
     25 C5        -27.4690    9.2200    9.3510 C.ar      1 ATP         0.1045
     26 C6        -26.3030   10.1160    9.1880 C.ar      1 ATP         0.1298
     27 N6        -25.9580   10.6080    7.9740 N.pl3     1 ATP        -0.3152
     28 N1        -25.5890   10.4180   10.2920 N.ar      1 ATP        -0.2698
     29 C2        -25.9160    9.9490   11.5120 C.ar      1 ATP         0.0533
     30 N3        -26.9610    9.1400   11.7380 N.ar      1 ATP        -0.2714
     31 C4        -27.7580    8.7440   10.7130 C.ar      1 ATP         0.1613
     32 H1        -33.7108    6.4462   10.7910 H         1 ATP         0.0648
     33 H2        -32.3715    6.1533    9.6304 H         1 ATP         0.0648
     34 H3        -31.9411    6.1105   12.6466 H         1 ATP         0.0651
     35 H4        -31.8570    8.5388   10.7889 H         1 ATP         0.0648
     36 H5        -32.7732    9.5038   12.6597 H         1 ATP         0.2100
     37 H6        -30.0406    9.3661   12.1519 H         1 ATP         0.0676
     38 H7        -31.0682    8.6660   14.1778 H         1 ATP         0.2101
     39 H8        -28.7634    6.8841   12.4492 H         1 ATP         0.0996
     40 H9        -30.1016    7.3928    8.9499 H         1 ATP         0.1349
     41 H10       -25.1423   11.2303    7.8834 H         1 ATP         0.1820
     42 H11       -26.5114   10.3598    7.1415 H         1 ATP         0.1820
     43 H12       -25.3015   10.2413   12.3558 H         1 ATP         0.0996
@<TRIPOS>BOND
     1    1    2 ar 
     2    1    3 ar 
     3    1    4 ar 
     4    8    1 1  
     5    5    6 ar 
     6    5    7 ar 
     7    5    8 1  
     8   12    5 1  
     9    9   10 ar 
    10    9   11 ar 
    11    9   12 1  
    12    9   13 1  
    13   13   14 1  
    14   14   15 1  
    15   15   16 1  
    16   15   17 1  
    17   16   21 1  
    18   17   18 1  
    19   17   19 1  
    20   19   20 1  
    21   19   21 1  
    22   21   22 1  
    23   22   23 1  
    24   22   31 1  
    25   23   24 2  
    26   24   25 1  
    27   25   26 ar 
    28   25   31 ar 
    29   26   27 1  
    30   26   28 ar 
    31   28   29 ar 
    32   29   30 ar 
    33   30   31 ar 
    34   14   32 1  
    35   14   33 1  
    36   15   34 1  
    37   17   35 1  
    38   18   36 1  
    39   19   37 1  
    40   20   38 1  
    41   21   39 1  
    42   23   40 1  
    43   27   41 1  
    44   27   42 1  
    45   29   43 1  
@<TRIPOS>SUBSTRUCTURE
     1 ATP         1

