### 
### Created by X-TOOL on Wed Dec 13 14:20:10 2017
### 

@<TRIPOS>MOLECULE
5jsq_ligand
   38    39     1     0     0
SMALL
GAST_HUCK


@<TRIPOS>ATOM
      1 C12        40.8260   22.8280   40.9160 C.3       1 MOL         0.0832
      2 P18        40.6500   30.2020   39.7450 P.3       1 MOL         0.0579
      3 O01        42.8070   21.5080   46.3950 O.2       1 MOL        -0.3594
      4 C02        41.9690   21.5480   45.5230 C.2       1 MOL         0.2628
      5 N03        40.7350   20.9770   45.7890 N.am      1 MOL        -0.2478
      6 C04        39.6980   20.9710   44.8340 C.cat     1 MOL         0.2041
      7 N05        38.5160   20.3730   45.2200 N.pl3     1 MOL        -0.3327
      8 N06        39.8750   21.5230   43.5300 N.pl3     1 MOL        -0.1902
      9 C07        41.1550   22.0850   43.2320 C.2       1 MOL         0.3244
     10 C08        42.1930   22.1290   44.1590 C.2       1 MOL         0.2557
     11 N09        43.2530   22.7610   43.5660 N.2       1 MOL        -0.1931
     12 C10        42.8780   23.0780   42.3240 C.2       1 MOL         0.1824
     13 N11        41.6320   22.6790   42.1150 N.pl3     1 MOL        -0.1271
     14 C13        39.8260   24.0070   41.1370 C.3       1 MOL        -0.0229
     15 C14        39.9620   25.0760   40.0290 C.3       1 MOL        -0.0504
     16 C15        39.1940   26.3690   40.3470 C.3       1 MOL        -0.0517
     17 C16        40.0890   27.5710   40.0100 C.3       1 MOL        -0.0380
     18 C17        39.4440   28.9170   40.2030 C.3       1 MOL         0.0196
     19 O19        41.7970   30.1740   40.7290 O.co2     1 MOL        -0.5623
     20 O20        41.1560   29.9170   38.3520 O.co2     1 MOL        -0.5623
     21 O21        40.0050   31.5700   39.7400 O.co2     1 MOL        -0.5623
     22 H1         40.2686   21.8991   40.7253 H         1 MOL         0.0641
     23 H2         41.4761   23.0486   40.0565 H         1 MOL         0.0641
     24 H3         40.5756   20.5577   46.6827 H         1 MOL         0.1819
     25 H4         37.7202   20.3363   44.5671 H         1 MOL         0.1774
     26 H5         38.4294   19.9633   46.1610 H         1 MOL         0.1774
     27 H6         39.1148   21.5167   42.8350 H         1 MOL         0.2519
     28 H7         43.5029   23.5881   41.5925 H         1 MOL         0.1822
     29 H8         40.0321   24.4734   42.1117 H         1 MOL         0.0293
     30 H9         38.7994   23.6120   41.1293 H         1 MOL         0.0293
     31 H10        39.5721   24.6586   39.0889 H         1 MOL         0.0266
     32 H11        41.0273   25.3216   39.9072 H         1 MOL         0.0266
     33 H12        38.9325   26.3907   41.4152 H         1 MOL         0.0266
     34 H13        38.2752   26.4114   39.7436 H         1 MOL         0.0266
     35 H14        40.3925   27.4859   38.9561 H         1 MOL         0.0279
     36 H15        40.9801   27.5241   40.6532 H         1 MOL         0.0279
     37 H16        38.5535   28.9977   39.5623 H         1 MOL         0.0451
     38 H17        39.1506   29.0409   41.2559 H         1 MOL         0.0451
@<TRIPOS>BOND
     1    1   13 1  
     2   14    1 1  
     3   18    2 1  
     4    2   19 ar 
     5    2   20 ar 
     6    2   21 ar 
     7    4    3 2  
     8    4    5 am 
     9   10    4 1  
    10    6    5 ar 
    11    6    7 ar 
    12    8    6 ar 
    13    9    8 1  
    14    9   10 2  
    15   13    9 1  
    16   11   10 1  
    17   12   11 2  
    18   13   12 1  
    19   15   14 1  
    20   16   15 1  
    21   17   16 1  
    22   17   18 1  
    23    1   22 1  
    24    1   23 1  
    25    5   24 1  
    26    7   25 1  
    27    7   26 1  
    28    8   27 1  
    29   12   28 1  
    30   14   29 1  
    31   14   30 1  
    32   15   31 1  
    33   15   32 1  
    34   16   33 1  
    35   16   34 1  
    36   17   35 1  
    37   17   36 1  
    38   18   37 1  
    39   18   38 1  
@<TRIPOS>SUBSTRUCTURE
     1 MOL         1

