### 
### Created by X-TOOL on Fri Nov 18 15:03:27 2016
### 

@<TRIPOS>MOLECULE
2v2c_ligand
   11    10     1     0     0
SMALL
GAST_HUCK


@<TRIPOS>ATOM
      1 P          12.0650   15.8960   15.4530 P.3       1 PGA         0.2032
      2 O1P        11.7780   14.3280   15.6450 O.3       1 PGA        -0.2622
      3 O2P        13.1490   15.9000   14.3700 O.co2     1 PGA        -0.5536
      4 O3P        10.7410   16.4640   15.0340 O.co2     1 PGA        -0.5536
      5 O4P        12.5070   16.5490   16.7240 O.co2     1 PGA        -0.5536
      6 C2         12.8660   13.4140   15.7810 C.3       1 PGA         0.1305
      7 C1         12.3250   11.9850   15.8680 C.2       1 PGA         0.0653
      8 O1         12.7150   11.0490   15.1230 O.co2     1 PGA        -0.5663
      9 O2         11.4370   11.7630   16.6950 O.co2     1 PGA        -0.5663
     10 H1         13.4298   13.6488   16.6959 H         1 PGA         0.0783
     11 H2         13.5299   13.5020   14.9084 H         1 PGA         0.0783
@<TRIPOS>BOND
     1    1    2 1  
     2    1    3 ar 
     3    1    4 ar 
     4    1    5 ar 
     5    2    6 1  
     6    6    7 1  
     7    7    8 ar 
     8    7    9 ar 
     9    6   10 1  
    10    6   11 1  
@<TRIPOS>SUBSTRUCTURE
     1 PGA         1

