### 
### Created by X-TOOL on Fri Nov 18 12:01:14 2016
### 

@<TRIPOS>MOLECULE
1tpw_ligand
   14    13     1     0     0
SMALL
GAST_HUCK


@<TRIPOS>ATOM
      1 C1         23.5110   30.2180   18.4800 C.2       1 PGH         0.2297
      2 C2         24.6930   31.1730   18.6660 C.3       1 PGH         0.1686
      3 N2         23.1110   30.1470   17.2260 N.am      1 PGH        -0.1620
      4 O2         22.0640   29.3220   16.8830 O.3       1 PGH        -0.2717
      5 O1         23.0650   29.5380   19.3960 O.2       1 PGH        -0.3940
      6 O1P        24.5710   32.0020   19.8200 O.3       1 PGH        -0.2560
      7 O2P        25.2880   34.0300   21.0850 O.co2     1 PGH        -0.5536
      8 O3P        26.2220   33.5850   18.8230 O.co2     1 PGH        -0.5536
      9 O4P        26.9070   32.1410   20.8130 O.co2     1 PGH        -0.5536
     10 P          25.8280   32.9410   20.1530 P.3       1 PGH         0.2041
     11 H1         24.7637   31.8185   17.7781 H         1 PGH         0.0857
     12 H2         25.6125   30.5767   18.7600 H         1 PGH         0.0857
     13 H3         23.5683   30.6926   16.5237 H         1 PGH         0.2217
     14 H4         22.2831   28.4249   17.1058 H         1 PGH         0.2490
@<TRIPOS>BOND
     1    1    2 1  
     2    1    3 am 
     3    1    5 2  
     4    2    6 1  
     5    3    4 1  
     6    6   10 1  
     7   10    9 ar 
     8   10    8 ar 
     9   10    7 ar 
    10    2   11 1  
    11    2   12 1  
    12    3   13 1  
    13    4   14 1  
@<TRIPOS>SUBSTRUCTURE
     1 PGH         1

