### 
### Created by X-TOOL on Fri Nov 18 12:48:59 2016
### 

@<TRIPOS>MOLECULE
1h6h_ligand
   64    64     1     0     0
SMALL
GAST_HUCK


@<TRIPOS>ATOM
      1 C1         10.9490   20.3160    5.6510 C.3       1 PIB         0.1512
      2 C2         11.8630   19.2320    5.0310 C.3       1 PIB         0.1218
      3 C3         11.9670   18.0000    6.0020 C.3       1 PIB         0.1460
      4 C4         10.5280   17.4240    6.3000 C.3       1 PIB         0.1165
      5 C5          9.6500   18.5310    6.9530 C.3       1 PIB         0.1125
      6 C6          9.5400   19.7450    5.9740 C.3       1 PIB         0.1172
      7 O1         10.8220   21.3850    4.7020 O.3       1 PIB        -0.2454
      8 O2         11.3240   18.8240    3.7830 O.3       1 PIB        -0.3857
      9 O3         12.8210   17.0480    5.3580 O.3       1 PIB        -0.2676
     10 O4         10.6080   16.3110    7.2060 O.3       1 PIB        -0.3861
     11 O5          8.3450   18.0280    7.1970 O.3       1 PIB        -0.3865
     12 O6          8.7370   20.7580    6.5800 O.3       1 PIB        -0.3861
     13 P1         11.7070   22.6980    4.6800 P.3       1 PIB         0.2557
     14 O11        11.7850   23.2070    3.1700 O.co2     1 PIB        -0.6177
     15 O12        13.1300   22.4370    5.2810 O.co2     1 PIB        -0.6177
     16 O13        10.9450   23.7970    5.5800 O.3       1 PIB        -0.2511
     17 P3         13.8080   16.0370    6.1510 P.3       1 PIB         0.2013
     18 O31        12.9260   15.0260    6.9970 O.co2     1 PIB        -0.5537
     19 O32        14.6980   16.9070    7.1270 O.co2     1 PIB        -0.5537
     20 O33        14.6690   15.2550    5.0630 O.co2     1 PIB        -0.5537
     21 C7          9.8960   24.5900    5.0580 C.3       1 PIB         0.1167
     22 C8         10.5070   25.9650    4.8440 C.3       1 PIB         0.1433
     23 C9         10.3390   26.8560    6.1000 C.3       1 PIB         0.1098
     24 C10         9.1200   28.8350    6.7970 C.2       1 PIB         0.2338
     25 C11         8.9280   30.3190    6.4550 C.3       1 PIB         0.0485
     26 C12         9.1290   31.3280    7.6060 C.3       1 PIB        -0.0376
     27 C13         9.1150   32.7900    7.1320 C.3       1 PIB        -0.0631
     28 C14        10.8730   26.6200    2.4930 C.2       1 PIB         0.2341
     29 C15        10.3650   27.6260    1.4670 C.3       1 PIB         0.0485
     30 C16        10.9480   29.0420    1.6070 C.3       1 PIB        -0.0376
     31 C17         9.9960   29.9850    2.3420 C.3       1 PIB        -0.0631
     32 O14        10.0380   26.5760    3.6160 O.3       1 PIB        -0.2681
     33 O15         9.8700   28.1910    5.8160 O.3       1 PIB        -0.2738
     34 O16         8.8100   28.3660    7.9060 O.2       1 PIB        -0.3704
     35 O17        12.0210   26.1790    2.4290 O.2       1 PIB        -0.3704
     36 H1         11.4064   20.6932    6.5775 H         1 PIB         0.0711
     37 H2         12.8675   19.6513    4.8724 H         1 PIB         0.0654
     38 H3         12.4232   18.3120    6.9530 H         1 PIB         0.0703
     39 H4         10.0670   17.0954    5.3569 H         1 PIB         0.0650
     40 H5         10.1070   18.8544    7.8999 H         1 PIB         0.0647
     41 H6          9.0644   19.4135    5.0392 H         1 PIB         0.0651
     42 H7         11.2761   19.5726    3.2001 H         1 PIB         0.2100
     43 H8         11.1406   15.6264    6.8185 H         1 PIB         0.2100
     44 H9          7.8142   18.7078    7.5953 H         1 PIB         0.2100
     45 H10         9.1413   21.0367    7.3932 H         1 PIB         0.2100
     46 H11         9.0616   24.6454    5.7726 H         1 PIB         0.0651
     47 H12         9.5358   24.1751    4.1051 H         1 PIB         0.0651
     48 H13        11.5891   25.8140    4.7166 H         1 PIB         0.0704
     49 H14        11.3144   26.9321    6.6028 H         1 PIB         0.0644
     50 H15         9.6163   26.3717    6.7731 H         1 PIB         0.0644
     51 H16         7.9023   30.4440    6.0777 H         1 PIB         0.0518
     52 H17         9.6447   30.5732    5.6602 H         1 PIB         0.0518
     53 H18        10.0977   31.1243    8.0856 H         1 PIB         0.0288
     54 H19         8.3206   31.1894    8.3389 H         1 PIB         0.0288
     55 H20         9.2623   33.4565    7.9946 H         1 PIB         0.0231
     56 H21         8.1477   33.0125    6.6578 H         1 PIB         0.0231
     57 H22         9.9249   32.9474    6.4045 H         1 PIB         0.0231
     58 H23         9.2718   27.6948    1.5678 H         1 PIB         0.0518
     59 H24        10.6179   27.2497    0.4648 H         1 PIB         0.0518
     60 H25        11.1428   29.4464    0.6028 H         1 PIB         0.0288
     61 H26        11.8923   28.9831    2.1681 H         1 PIB         0.0288
     62 H27        10.4539   30.9823    2.4180 H         1 PIB         0.0231
     63 H28         9.7992   29.5941    3.3512 H         1 PIB         0.0231
     64 H29         9.0497   30.0575    1.7859 H         1 PIB         0.0231
@<TRIPOS>BOND
     1    1    7 1  
     2    1    6 1  
     3    1    2 1  
     4    2    8 1  
     5    2    3 1  
     6    3    9 1  
     7    3    4 1  
     8    4   10 1  
     9    4    5 1  
    10    5   11 1  
    11    5    6 1  
    12    6   12 1  
    13    9   17 1  
    14   17   20 ar 
    15   17   19 ar 
    16   17   18 ar 
    17    7   13 1  
    18   13   16 1  
    19   13   15 ar 
    20   13   14 ar 
    21   16   21 1  
    22   21   22 1  
    23   22   32 1  
    24   22   23 1  
    25   23   33 1  
    26   33   24 1  
    27   24   34 2  
    28   24   25 1  
    29   25   26 1  
    30   26   27 1  
    31   32   28 1  
    32   28   35 2  
    33   28   29 1  
    34   29   30 1  
    35   30   31 1  
    36    1   36 1  
    37    2   37 1  
    38    3   38 1  
    39    4   39 1  
    40    5   40 1  
    41    6   41 1  
    42    8   42 1  
    43   10   43 1  
    44   11   44 1  
    45   12   45 1  
    46   21   46 1  
    47   21   47 1  
    48   22   48 1  
    49   23   49 1  
    50   23   50 1  
    51   25   51 1  
    52   25   52 1  
    53   26   53 1  
    54   26   54 1  
    55   27   55 1  
    56   27   56 1  
    57   27   57 1  
    58   29   58 1  
    59   29   59 1  
    60   30   60 1  
    61   30   61 1  
    62   31   62 1  
    63   31   63 1  
    64   31   64 1  
@<TRIPOS>SUBSTRUCTURE
     1 PIB         1

