### 
### Created by X-TOOL on Wed Dec 13 14:15:42 2017
### 

@<TRIPOS>MOLECULE
5edl_ligand
   35    36     1     0     0
SMALL
GAST_HUCK


@<TRIPOS>ATOM
      1 CM2         5.6770   19.1820   62.9070 C.3       1 VIB        -0.0029
      2 N4A         9.9870   17.7270   61.1020 N.pl3     1 VIB        -0.3186
      3 CM4        12.3960   19.3690   57.2480 C.3       1 VIB        -0.0181
      4 O1         13.3670   15.6290   57.3070 O.3       1 VIB        -0.3936
      5 C7         12.6150   15.3140   56.1520 C.3       1 VIB         0.0492
      6 C6         12.1550   16.6070   55.5240 C.3       1 VIB        -0.0037
      7 C2          8.9800   17.5530   57.6930 C.2       1 VIB         0.0206
      8 S1          9.6810   16.5650   56.7010 S.3       1 VIB        -0.1084
      9 C5         11.0760   17.1820   56.4240 C.2       1 VIB         0.0052
     10 C4         11.2110   18.3980   57.1890 C.2       1 VIB         0.0355
     11 N3          9.8790   18.6330   57.9850 N.pl3     1 VIB        -0.3021
     12 C7A         9.6950   19.8110   58.8270 C.3       1 VIB         0.0762
     13 C4A         8.8230   18.5820   61.0160 C.ar      1 VIB         0.1237
     14 N3A         7.8510   18.5020   61.9270 N.ar      1 VIB        -0.2609
     15 C2A         6.7650   19.3170   61.8280 C.ar      1 VIB         0.0758
     16 N1A         6.6780   20.2280   60.8070 N.ar      1 VIB        -0.2937
     17 C6A         7.6590   20.3250   59.8730 C.ar      1 VIB         0.0089
     18 C5A         8.7420   19.4910   59.9930 C.ar      1 VIB         0.0466
     19 H1          5.9611   18.3915   63.6172 H         1 VIB         0.0449
     20 H2          4.7197   18.9214   62.4319 H         1 VIB         0.0449
     21 H3          5.5722   20.1365   63.4435 H         1 VIB         0.0449
     22 H4         10.7311   17.7973   60.3933 H         1 VIB         0.1789
     23 H5         10.0715   17.0480   61.8719 H         1 VIB         0.1789
     24 H6         13.2100   18.9932   56.6106 H         1 VIB         0.0375
     25 H7         12.7512   19.4514   58.2858 H         1 VIB         0.0375
     26 H8         12.0771   20.3589   56.8898 H         1 VIB         0.0375
     27 H9         13.6662   14.8262   57.7174 H         1 VIB         0.2096
     28 H10        11.7430   14.7038   56.4299 H         1 VIB         0.0573
     29 H11        13.2412   14.7561   55.4402 H         1 VIB         0.0573
     30 H12        11.7466   16.4148   54.5209 H         1 VIB         0.0383
     31 H13        12.9974   17.3103   55.4484 H         1 VIB         0.0383
     32 H14         7.9746   17.4393   58.0956 H         1 VIB         0.0291
     33 H15         9.2687   20.6256   58.2232 H         1 VIB         0.0732
     34 H16        10.6692   20.1245   59.2303 H         1 VIB         0.0732
     35 H17         7.5888   21.0379   59.0594 H         1 VIB         0.0791
@<TRIPOS>BOND
     1   15    1 1  
     2   13    2 1  
     3   10    3 1  
     4    5    4 1  
     5    6    5 1  
     6    9    6 1  
     7    7    8 1  
     8   11    7 1  
     9    9    8 1  
    10   10    9 2  
    11   11   10 1  
    12   12   11 1  
    13   18   12 1  
    14   14   13 ar 
    15   13   18 ar 
    16   14   15 ar 
    17   15   16 ar 
    18   16   17 ar 
    19   17   18 ar 
    20    1   19 1  
    21    1   20 1  
    22    1   21 1  
    23    2   22 1  
    24    2   23 1  
    25    3   24 1  
    26    3   25 1  
    27    3   26 1  
    28    4   27 1  
    29    5   28 1  
    30    5   29 1  
    31    6   30 1  
    32    6   31 1  
    33    7   32 1  
    34   12   33 1  
    35   12   34 1  
    36   17   35 1  
@<TRIPOS>SUBSTRUCTURE
     1 VIB         1

