### 
### Created by X-TOOL on Fri Nov 18 16:37:28 2016
### 

@<TRIPOS>MOLECULE
2yay_ligand
   42    43     1     0     0
SMALL
GAST_HUCK


@<TRIPOS>ATOM
      1 O4         -5.8790   28.1630   -4.0830 O.3       1 DUP        -0.3174
      2 C4         -6.9370   28.7960   -3.5900 C.2       1 DUP         0.1613
      3 C5         -7.9880   29.0280   -4.5010 C.2       1 DUP        -0.0600
      4 C6         -9.1340   29.6000   -4.0120 C.3       1 DUP         0.0304
      5 N3         -7.0560   29.1280   -2.2860 N.am      1 DUP        -0.2004
      6 C2         -8.1760   29.7010   -1.8490 C.2       1 DUP         0.2937
      7 O2         -8.2680   30.0760   -0.6660 O.2       1 DUP        -0.3904
      8 N1         -9.2000   29.9760   -2.7150 N.am      1 DUP        -0.2290
      9 C1'       -10.4170   30.6040   -2.2050 C.3       1 DUP         0.1497
     10 C2'       -10.2720   31.9760   -1.6370 C.3       1 DUP         0.0237
     11 C3'       -11.6010   32.6620   -1.8040 C.3       1 DUP         0.0883
     12 O3'       -12.2980   32.8540   -0.5440 O.3       1 DUP        -0.3890
     13 O4'       -11.4380   30.7800   -3.2210 O.3       1 DUP        -0.3458
     14 C4'       -12.3400   31.7200   -2.7070 C.3       1 DUP         0.1158
     15 C5'       -12.9910   32.3640   -3.9130 C.3       1 DUP         0.1132
     16 O5'       -13.5650   31.3400   -4.7380 O.3       1 DUP        -0.2529
     17 PA        -14.4530   31.7580   -6.0610 P.3       1 DUP         0.2362
     18 O1A       -14.4520   30.5530   -6.9150 O.co2     1 DUP        -0.6036
     19 O2A       -13.8830   33.0630   -6.5690 O.co2     1 DUP        -0.6036
     20 N3A       -16.0440   32.0980   -5.6570 N.am      1 DUP        -0.1581
     21 PB        -16.5870   33.3430   -4.6940 P.3       1 DUP         0.2871
     22 O1B       -15.8360   34.7270   -4.8210 O.co2     1 DUP        -0.5685
     23 O2B       -16.6840   32.8670   -3.2470 O.co2     1 DUP        -0.5685
     24 O3B       -18.0240   33.5690   -5.4180 O.3       1 DUP        -0.1659
     25 PG        -18.0470   33.8930   -7.0420 P.3       1 DUP         0.2047
     26 O2G       -18.1110   32.5770   -7.8260 O.co2     1 DUP        -0.5893
     27 O1G       -16.7590   34.6080   -7.5350 O.co2     1 DUP        -0.5893
     28 O3G       -19.2700   34.7670   -7.0640 O.co2     1 DUP        -0.5893
     29 H1         -5.7838   27.3229   -3.6499 H         1 DUP         0.2495
     30 H2         -7.8930   28.7629   -5.5530 H         1 DUP        -0.0036
     31 H3         -9.9454   28.8753   -4.1745 H         1 DUP         0.0521
     32 H4         -9.3214   30.5013   -4.6141 H         1 DUP         0.0521
     33 H5         -6.3057   28.9442   -1.6510 H         1 DUP         0.2278
     34 H6        -10.8034   29.9408   -1.4171 H         1 DUP         0.0869
     35 H7         -9.4905   32.5289   -2.1788 H         1 DUP         0.0337
     36 H8        -10.0079   31.9179   -0.5708 H         1 DUP         0.0337
     37 H9        -11.4702   33.6416   -2.2870 H         1 DUP         0.0621
     38 H10       -13.1271   33.2890   -0.7051 H         1 DUP         0.2099
     39 H11       -13.1156   31.2136   -2.1137 H         1 DUP         0.0650
     40 H12       -12.2349   32.9193   -4.4874 H         1 DUP         0.0651
     41 H13       -13.7798   33.0550   -3.5810 H         1 DUP         0.0651
     42 H14       -16.7410   31.4883   -6.0345 H         1 DUP         0.2175
@<TRIPOS>BOND
     1    1    2 1  
     2    2    3 2  
     3    2    5 1  
     4    3    4 1  
     5    4    8 1  
     6    5    6 am 
     7    6    7 2  
     8    6    8 am 
     9    8    9 1  
    10    9   10 1  
    11    9   13 1  
    12   10   11 1  
    13   11   12 1  
    14   11   14 1  
    15   13   14 1  
    16   14   15 1  
    17   15   16 1  
    18   16   17 1  
    19   17   18 ar 
    20   17   19 ar 
    21   17   20 am 
    22   20   21 1  
    23   21   22 ar 
    24   21   23 ar 
    25   21   24 1  
    26   24   25 1  
    27   25   26 ar 
    28   25   27 ar 
    29   25   28 ar 
    30    1   29 1  
    31    3   30 1  
    32    4   31 1  
    33    4   32 1  
    34    5   33 1  
    35    9   34 1  
    36   10   35 1  
    37   10   36 1  
    38   11   37 1  
    39   12   38 1  
    40   14   39 1  
    41   15   40 1  
    42   15   41 1  
    43   20   42 1  
@<TRIPOS>SUBSTRUCTURE
     1 DUP         1

