### 
### Created by X-TOOL on Fri Nov 18 15:04:09 2016
### 

@<TRIPOS>MOLECULE
3exe_ligand
   43    44     1     0     0
SMALL
GAST_HUCK


@<TRIPOS>ATOM
      1 N1'        12.1030   -4.6610   55.4540 N.ar      1 TPP        -0.2938
      2 C2'        12.7190   -4.4270   54.2350 C.ar      1 TPP         0.0758
      3 CM2        13.6120   -3.2430   54.0610 C.3       1 TPP        -0.0029
      4 N3'        12.5380   -5.3000   53.2100 N.ar      1 TPP        -0.2610
      5 C4'        11.7280   -6.4050   53.4150 C.ar      1 TPP         0.1231
      6 N4'        11.6530   -7.2440   52.3710 N.pl3     1 TPP        -0.3186
      7 C5'        11.0600   -6.6250   54.6170 C.ar      1 TPP         0.0402
      8 C6'        11.2560   -5.7450   55.6530 C.ar      1 TPP         0.0082
      9 C7'        10.1490   -7.8310   54.8440 C.3       1 TPP         0.0605
     10 N3          8.9420   -7.5480   54.0510 N.pl3     1 TPP        -0.3080
     11 C2          8.7540   -8.0200   52.7390 C.3       1 TPP         0.0744
     12 S1          7.3370   -7.4420   52.1270 S.3       1 TPP        -0.1219
     13 C5          6.9040   -6.6710   53.5160 C.2       1 TPP        -0.0224
     14 C4          7.9050   -6.7850   54.4940 C.2       1 TPP         0.0018
     15 CM4         7.7940   -6.1800   55.8630 C.3       1 TPP        -0.0282
     16 C6          5.5710   -5.9040   53.6240 C.3       1 TPP        -0.0077
     17 C7          5.4770   -4.7800   52.5610 C.3       1 TPP         0.0875
     18 O7          4.1370   -4.3840   52.3940 O.3       1 TPP        -0.2451
     19 PA          3.5380   -3.4150   51.2500 P.3       1 TPP         0.3276
     20 O1A         4.5920   -2.3720   50.9470 O.co2     1 TPP        -0.5556
     21 O2A         2.2830   -2.7730   51.7230 O.co2     1 TPP        -0.5556
     22 O3A         3.4870   -4.2970   49.9430 O.3       1 TPP        -0.1548
     23 PB          2.4580   -5.4320   49.4210 P.3       1 TPP         0.2069
     24 O1B         1.1770   -5.3270   50.2730 O.co2     1 TPP        -0.5891
     25 O2B         2.1950   -5.0570   47.9740 O.co2     1 TPP        -0.5891
     26 O3B         3.0860   -6.8020   49.5180 O.co2     1 TPP        -0.5891
     27 H1         13.6316   -2.6585   54.9927 H         1 TPP         0.0449
     28 H2         13.2324   -2.6146   53.2419 H         1 TPP         0.0449
     29 H3         14.6299   -3.5836   53.8204 H         1 TPP         0.0449
     30 H4         11.0734   -8.0932   52.4333 H         1 TPP         0.1789
     31 H5         12.1750   -7.0390   51.5071 H         1 TPP         0.1789
     32 H6         10.7606   -5.8927   56.6058 H         1 TPP         0.0791
     33 H7          9.8971   -7.9306   55.9101 H         1 TPP         0.0654
     34 H8         10.6343   -8.7540   54.4941 H         1 TPP         0.0654
     35 H9          8.7245   -9.1196   52.7486 H         1 TPP         0.0639
     36 H10         9.5883   -7.6810   52.1073 H         1 TPP         0.0639
     37 H11         6.8525   -5.6163   55.9395 H         1 TPP         0.0360
     38 H12         8.6426   -5.5013   56.0339 H         1 TPP         0.0360
     39 H13         7.8054   -6.9789   56.6190 H         1 TPP         0.0360
     40 H14         5.4961   -5.4561   54.6259 H         1 TPP         0.0359
     41 H15         4.7396   -6.6085   53.4742 H         1 TPP         0.0359
     42 H16         5.8687   -5.1517   51.6027 H         1 TPP         0.0634
     43 H17         6.0733   -3.9164   52.8907 H         1 TPP         0.0634
@<TRIPOS>BOND
     1    1    2 ar 
     2    1    8 ar 
     3    2    3 1  
     4    2    4 ar 
     5    4    5 ar 
     6    5    6 1  
     7    5    7 ar 
     8    7    8 ar 
     9    7    9 1  
    10    9   10 1  
    11   10   11 1  
    12   10   14 1  
    13   11   12 1  
    14   12   13 1  
    15   13   14 2  
    16   13   16 1  
    17   14   15 1  
    18   16   17 1  
    19   17   18 1  
    20   18   19 1  
    21   19   20 ar 
    22   19   21 ar 
    23   19   22 1  
    24   22   23 1  
    25   23   24 ar 
    26   23   25 ar 
    27   23   26 ar 
    28    3   27 1  
    29    3   28 1  
    30    3   29 1  
    31    6   30 1  
    32    6   31 1  
    33    8   32 1  
    34    9   33 1  
    35    9   34 1  
    36   11   35 1  
    37   11   36 1  
    38   15   37 1  
    39   15   38 1  
    40   15   39 1  
    41   16   40 1  
    42   16   41 1  
    43   17   42 1  
    44   17   43 1  
@<TRIPOS>SUBSTRUCTURE
     1 TPP         1

