### 
### Created by X-TOOL on Fri Nov 18 17:27:45 2016
### 

@<TRIPOS>MOLECULE
4bi7_ligand
   11    10     1     0     0
SMALL
GAST_HUCK


@<TRIPOS>ATOM
      1 P           1.4030  -19.7380  -23.6400 P.3       1 PGA         0.2032
      2 O1P         2.0190  -18.2680  -23.9140 O.3       1 PGA        -0.2622
      3 O2P         2.3620  -20.4670  -22.7310 O.co2     1 PGA        -0.5536
      4 O3P         0.0450  -19.6360  -22.9750 O.co2     1 PGA        -0.5536
      5 O4P         1.2470  -20.4900  -24.9360 O.co2     1 PGA        -0.5536
      6 C2          3.3870  -17.9870  -23.6650 C.3       1 PGA         0.1305
      7 C1          3.7190  -16.5960  -24.1640 C.2       1 PGA         0.0653
      8 O1          4.2570  -15.7280  -23.4100 O.co2     1 PGA        -0.5663
      9 O2          3.4570  -16.3210  -25.3640 O.co2     1 PGA        -0.5663
     10 H1          4.0134  -18.7233  -24.1898 H         1 PGA         0.0783
     11 H2          3.5816  -18.0442  -22.5839 H         1 PGA         0.0783
@<TRIPOS>BOND
     1    1    2 1  
     2    1    3 ar 
     3    1    4 ar 
     4    1    5 ar 
     5    2    6 1  
     6    6    7 1  
     7    7    8 ar 
     8    7    9 ar 
     9    6   10 1  
    10    6   11 1  
@<TRIPOS>SUBSTRUCTURE
     1 PGA         1

