### 
### Created by X-TOOL on Fri Nov 18 17:10:38 2016
### 

@<TRIPOS>MOLECULE
4fl1_ligand
   44    46     1     0     0
SMALL
GAST_HUCK


@<TRIPOS>ATOM
      1 PG         -1.1030    6.8570    8.5530 P.3       1 ANP         0.1803
      2 O1G        -1.1310    6.8560   10.1190 O.co2     1 ANP        -0.5454
      3 O2G        -1.3840    8.3120    8.0270 O.co2     1 ANP        -0.5454
      4 O3G        -2.2630    5.9090    8.0810 O.co2     1 ANP        -0.5454
      5 PB          1.7870    7.0150    8.4970 P.3       1 ANP         0.2543
      6 O1B         2.6810    7.4380    7.3050 O.co2     1 ANP        -0.6257
      7 O2B         1.5010    8.2560    9.3810 O.co2     1 ANP        -0.6257
      8 N3B         0.3670    6.2880    7.9320 N.am      1 ANP        -0.1803
      9 PA          2.4540    5.3990   10.8840 P.3       1 ANP         0.2949
     10 O1A         3.7690    5.5720   11.6890 O.co2     1 ANP        -0.6129
     11 O2A         1.3240    6.1930   11.5910 O.co2     1 ANP        -0.6129
     12 O3A         2.6220    5.9510    9.3770 O.3       1 ANP        -0.1431
     13 O5'         2.0270    3.8530   10.7630 O.3       1 ANP        -0.2478
     14 C5'         0.6800    3.4680   10.4460 C.3       1 ANP         0.1128
     15 C4'         0.1620    2.4370   11.4530 C.3       1 ANP         0.1189
     16 O4'         1.0720    1.3140   11.5180 O.3       1 ANP        -0.3364
     17 C3'         0.1100    2.9870   12.8950 C.3       1 ANP         0.1149
     18 O3'        -1.0880    3.7270   13.1310 O.3       1 ANP        -0.3864
     19 C2'         0.1700    1.6820   13.7250 C.3       1 ANP         0.1385
     20 O2'        -1.1260    1.0610   13.7740 O.3       1 ANP        -0.3836
     21 C1'         1.1560    0.8200   12.8810 C.3       1 ANP         0.2010
     22 N9          2.5330    0.8730   13.4110 N.pl3     1 ANP        -0.1919
     23 C8          3.5550    1.6970   13.0160 C.2       1 ANP         0.1123
     24 N7          4.6280    1.4840   13.7450 N.2       1 ANP        -0.2958
     25 C5          4.3470    0.5390   14.6850 C.ar      1 ANP         0.1045
     26 C6          5.0470   -0.0750   15.7570 C.ar      1 ANP         0.1298
     27 N6          6.3570    0.2410   16.0860 N.pl3     1 ANP        -0.3152
     28 N1          4.4040   -0.9860   16.5000 N.ar      1 ANP        -0.2698
     29 C2          3.1410   -1.2910   16.2740 C.ar      1 ANP         0.0533
     30 N3          2.4530   -0.7660   15.2890 N.ar      1 ANP        -0.2714
     31 C4          3.0020    0.1580   14.4850 C.ar      1 ANP         0.1613
     32 H1          0.3946    5.5505    7.2572 H         1 ANP         0.2132
     33 H2          0.6571    3.0306    9.4370 H         1 ANP         0.0648
     34 H3          0.0336    4.3576   10.4748 H         1 ANP         0.0648
     35 H4         -0.8394    2.1048   11.1417 H         1 ANP         0.0651
     36 H5          0.9770    3.6298   13.1072 H         1 ANP         0.0648
     37 H6         -1.8396    3.1616   12.9974 H         1 ANP         0.2100
     38 H7          0.5460    1.8584   14.7436 H         1 ANP         0.0676
     39 H8         -1.7465    1.6570   14.1770 H         1 ANP         0.2101
     40 H9          0.8252   -0.2288   12.9031 H         1 ANP         0.0996
     41 H10         3.4874    2.4266   12.2103 H         1 ANP         0.1349
     42 H11         6.8191   -0.2346   16.8741 H         1 ANP         0.1820
     43 H12         6.8676    0.9512   15.5422 H         1 ANP         0.1820
     44 H13         2.6524   -2.0038   16.9284 H         1 ANP         0.0996
@<TRIPOS>BOND
     1    1    2 ar 
     2    1    3 ar 
     3    1    4 ar 
     4    8    1 am 
     5    5    6 ar 
     6    5    7 ar 
     7    5    8 1  
     8   12    5 1  
     9    9   10 ar 
    10    9   11 ar 
    11    9   12 1  
    12    9   13 1  
    13   13   14 1  
    14   14   15 1  
    15   15   16 1  
    16   15   17 1  
    17   16   21 1  
    18   17   18 1  
    19   17   19 1  
    20   19   20 1  
    21   19   21 1  
    22   21   22 1  
    23   22   23 1  
    24   22   31 1  
    25   23   24 2  
    26   24   25 1  
    27   25   26 ar 
    28   25   31 ar 
    29   26   27 1  
    30   26   28 ar 
    31   28   29 ar 
    32   29   30 ar 
    33   30   31 ar 
    34    8   32 1  
    35   14   33 1  
    36   14   34 1  
    37   15   35 1  
    38   17   36 1  
    39   18   37 1  
    40   19   38 1  
    41   20   39 1  
    42   21   40 1  
    43   23   41 1  
    44   27   42 1  
    45   27   43 1  
    46   29   44 1  
@<TRIPOS>SUBSTRUCTURE
     1 ANP         1

