### 
### Created by X-TOOL on Fri Nov 18 14:38:49 2016
### 

@<TRIPOS>MOLECULE
2amt_ligand
   59    61     1     0     0
SMALL
GAST_HUCK


@<TRIPOS>ATOM
      1 O1          4.7270    4.8630   15.1430 O.2       1 MOL        -0.4066
      2 C1          3.7620    5.6210   15.0730 C.2       1 MOL         0.2512
      3 N4          3.4470    6.4200   16.1820 N.2       1 MOL        -0.2774
      4 C9          2.3540    7.2940   16.1370 C.2       1 MOL         0.0850
      5 N3          2.0660    8.0440   17.1960 N.pl3     1 MOL        -0.3156
      6 C8          1.5750    7.3740   14.9870 C.2       1 MOL         0.0083
      7 C7          1.8800    6.5880   13.8780 C.2       1 MOL         0.0795
      8 N2          2.9760    5.6970   13.9030 N.am      1 MOL        -0.1649
      9 C2          3.3060    4.8530   12.7090 C.3       1 MOL         0.2119
     10 O2          3.2360    5.6570   11.4910 O.3       1 MOL        -0.3345
     11 C3          2.3420    3.6720   12.5190 C.3       1 MOL         0.1409
     12 O4          3.0800    2.5090   12.1220 O.3       1 MOL        -0.3834
     13 C4          1.4280    4.1350   11.3910 C.3       1 MOL         0.1152
     14 O3          0.9520    3.0170   10.6330 O.3       1 MOL        -0.3864
     15 C5          2.3650    4.9960   10.5450 C.3       1 MOL         0.1191
     16 C6          1.5780    6.0850    9.8130 C.3       1 MOL         0.1128
     17 O2          0.8740    6.9350   10.7380 O.3       1 MOL        -0.2476
     18 P1         -0.3880    7.8150   10.2670 P.3       1 MOL         0.2972
     19 O1          0.1250    9.0480    9.6290 O.co2     1 MOL        -0.6127
     20 O9         -1.3440    7.9170   11.3880 O.co2     1 MOL        -0.6127
     21 O3         -1.0550    6.8460    9.1530 O.3       1 MOL        -0.1319
     22 P2         -1.6890    7.3550    7.7500 P.3       1 MOL         0.2972
     23 O8         -1.1870    8.7030    7.3930 O.co2     1 MOL        -0.6127
     24 O7         -3.1520    7.1150    7.7900 O.co2     1 MOL        -0.6127
     25 O4         -1.0370    6.3120    6.6970 O.3       1 MOL        -0.2477
     26 C7         -1.2440    4.8950    6.8140 C.3       1 MOL         0.1115
     27 C8          0.0910    4.1500    6.7590 C.3       1 MOL         0.1038
     28 O5          0.2910    3.5620    5.4520 O.3       1 MOL        -0.2770
     29 C9          1.3570    4.0900    4.7730 C.2       1 MOL         0.2547
     30 O6          2.2660    4.6590    5.3820 O.2       1 MOL        -0.3649
     31 C1          1.4120    3.9610    3.2400 C.ar      1 MOL         0.0787
     32 C2          0.2290    3.7710    2.5230 C.ar      1 MOL        -0.0520
     33 C3          0.2650    3.6530    1.1330 C.ar      1 MOL        -0.0690
     34 C4          1.4790    3.7210    0.4510 C.ar      1 MOL        -0.0689
     35 C5          2.6630    3.9110    1.1620 C.ar      1 MOL        -0.0380
     36 C6          2.6310    4.0320    2.5520 C.ar      1 MOL         0.0583
     37 N1          3.7750    4.2140    3.2060 N.pl3     1 MOL        -0.3322
     38 H1          1.2630    8.6884   17.1677 H         1 MOL         0.1833
     39 H2          2.6459    7.9807   18.0449 H         1 MOL         0.1833
     40 H3          0.7243    8.0531   14.9537 H         1 MOL         0.0373
     41 H4          1.2664    6.6613   12.9813 H         1 MOL         0.1328
     42 H5          4.3269    4.4630   12.8339 H         1 MOL         0.1026
     43 H6          1.7719    3.4642   13.4365 H         1 MOL         0.0678
     44 H7          2.4818    1.7803   12.0052 H         1 MOL         0.2101
     45 H8          0.5774    4.7181   11.7736 H         1 MOL         0.0648
     46 H9          1.6910    2.5520   10.2586 H         1 MOL         0.2100
     47 H10         2.9316    4.3799    9.8313 H         1 MOL         0.0651
     48 H11         0.8504    5.6093    9.1390 H         1 MOL         0.0648
     49 H12         2.2769    6.6976    9.2246 H         1 MOL         0.0648
     50 H13        -1.8831    4.5533    5.9864 H         1 MOL         0.0647
     51 H14        -1.7389    4.6798    7.7725 H         1 MOL         0.0647
     52 H15         0.0925    3.3538    7.5179 H         1 MOL         0.0638
     53 H16         0.9083    4.8563    6.9668 H         1 MOL         0.0638
     54 H17        -0.7184    3.7151    3.0467 H         1 MOL         0.0637
     55 H18        -0.6562    3.5076    0.5804 H         1 MOL         0.0519
     56 H19         1.5022    3.6264   -0.6286 H         1 MOL         0.0621
     57 H20         3.6088    3.9648    0.6351 H         1 MOL         0.0529
     58 H21         3.7728    4.3056    4.2319 H         1 MOL         0.1746
     59 H22         4.6630    4.2633    2.6865 H         1 MOL         0.1746
@<TRIPOS>BOND
     1    1    2 2  
     2    2    3 1  
     3    2    8 am 
     4    3    4 2  
     5    4    5 1  
     6    4    6 1  
     7    6    7 2  
     8    7    8 1  
     9    8    9 1  
    10    9   10 1  
    11    9   11 1  
    12   10   15 1  
    13   11   12 1  
    14   11   13 1  
    15   13   14 1  
    16   13   15 1  
    17   15   16 1  
    18   16   17 1  
    19   17   18 1  
    20   18   19 ar 
    21   18   20 ar 
    22   18   21 1  
    23   21   22 1  
    24   22   23 ar 
    25   22   24 ar 
    26   22   25 1  
    27   25   26 1  
    28   26   27 1  
    29   27   28 1  
    30   28   29 1  
    31   29   30 2  
    32   29   31 1  
    33   31   32 ar 
    34   31   36 ar 
    35   32   33 ar 
    36   33   34 ar 
    37   34   35 ar 
    38   35   36 ar 
    39   36   37 1  
    40    5   38 1  
    41    5   39 1  
    42    6   40 1  
    43    7   41 1  
    44    9   42 1  
    45   11   43 1  
    46   12   44 1  
    47   13   45 1  
    48   14   46 1  
    49   15   47 1  
    50   16   48 1  
    51   16   49 1  
    52   26   50 1  
    53   26   51 1  
    54   27   52 1  
    55   27   53 1  
    56   32   54 1  
    57   33   55 1  
    58   34   56 1  
    59   35   57 1  
    60   37   58 1  
    61   37   59 1  
@<TRIPOS>SUBSTRUCTURE
     1 MOL         1

