### 
### Created by X-TOOL on Wed Dec 13 14:17:45 2017
### 

@<TRIPOS>MOLECULE
5czm_ligand
   84    87     1     0     0
SMALL
GAST_HUCK


@<TRIPOS>ATOM
      1 O4          9.8790   26.5400    4.2230 O.2       1 R47        -0.3964
      2 N1          6.5890   22.7060    5.5780 N.2       1 R47        -0.1517
      3 O1          7.7880   22.9780    4.8790 O.3       1 R47        -0.1669
      4 C25         8.9620   26.7190    3.4490 C.2       1 R47         0.1851
      5 C17         8.5640   25.6850    2.4530 C.3       1 R47         0.0781
      6 C16         8.7000   24.3060    3.0730 C.3       1 R47         0.0421
      7 C14         6.2230   24.2270    3.9950 C.2       1 R47        -0.0269
      8 C13         5.6840   23.4690    5.0290 C.2       1 R47         0.0432
      9 C12         4.2860   23.4060    5.5160 C.ar      1 R47        -0.0148
     10 C11         3.3110   24.1070    4.8180 C.ar      1 R47        -0.0544
     11 C10         1.9910   24.0550    5.2280 C.ar      1 R47        -0.0543
     12 C7          1.6560   23.2960    6.3370 C.ar      1 R47        -0.0186
     13 C8          2.6210   22.5690    7.0350 C.ar      1 R47        -0.0543
     14 C9          3.9460   22.6200    6.6180 C.ar      1 R47        -0.0544
     15 C15         7.5240   23.9100    3.9210 C.2       1 R47         0.1412
     16 CL1        -2.3200   20.6160    8.2370 Cl        1 R47        -0.0707
     17 C1         -1.6430   22.0740    7.6060 C.ar      1 R47         0.0409
     18 C2         -0.3050   22.0850    7.2480 C.ar      1 R47        -0.0403
     19 C3         -2.4400   23.2000    7.4630 C.ar      1 R47        -0.0479
     20 C4         -1.8890   24.3590    6.9490 C.ar      1 R47        -0.0609
     21 C5         -0.5480   24.3750    6.5880 C.ar      1 R47        -0.0541
     22 C6          0.2410   23.2480    6.7480 C.ar      1 R47        -0.0179
     23 C18         9.5730   25.8040    1.3360 C.3       1 R47         0.0357
     24 P1          9.1570   24.9780   -0.2150 P.3       1 R47         0.0120
     25 O2          9.4580   23.4820   -0.1250 O.co2     1 R47        -0.6187
     26 O3          7.7170   25.2610   -0.5280 O.co2     1 R47        -0.6187
     27 C19        10.2280   25.7470   -1.4220 C.ar      1 R47         0.0317
     28 C20         9.7170   26.3680   -2.5550 C.ar      1 R47        -0.0373
     29 C21        10.5900   26.9560   -3.4670 C.ar      1 R47        -0.0462
     30 C22        11.9580   26.9140   -3.2270 C.ar      1 R47         0.0175
     31 BR1        13.1640   27.7060   -4.4450 Br        1 R47        -0.0459
     32 C23        12.4690   26.3000   -2.0970 C.ar      1 R47        -0.0462
     33 C24        11.5980   25.7100   -1.1950 C.ar      1 R47        -0.0373
     34 N2          8.2620   27.8410    3.4040 N.am      1 R47        -0.2651
     35 C26         8.5920   28.9390    4.2890 C.3       1 R47         0.1324
     36 C30         7.8460   28.9770    5.5840 C.2       1 R47         0.2040
     37 O7          6.7020   28.5890    5.6920 O.2       1 R47        -0.3944
     38 C27         8.3450   30.2500    3.5450 C.3       1 R47        -0.0008
     39 C28         9.2930   30.4400    2.3700 C.3       1 R47         0.0044
     40 C29         9.1940   31.8140    1.7480 C.2       1 R47         0.0350
     41 O5          8.5230   31.9950    0.7440 O.co2     1 R47        -0.5690
     42 O6          9.8800   32.7570    2.3880 O.co2     1 R47        -0.5690
     43 N3          8.5050   29.5040    6.6000 N.am      1 R47        -0.2636
     44 C31         7.9060   29.6400    7.9020 C.3       1 R47         0.1321
     45 C35         6.8060   30.6700    7.8980 C.2       1 R47         0.1993
     46 O10         5.7890   30.4880    8.5560 O.2       1 R47        -0.3947
     47 C32         9.0200   30.0950    8.8240 C.3       1 R47        -0.0008
     48 C33         8.6280   30.1740   10.2830 C.3       1 R47         0.0044
     49 C34         9.8930   30.3660   11.0800 C.2       1 R47         0.0350
     50 O8         10.3700   31.4800   11.2040 O.co2     1 R47        -0.5690
     51 O9         10.5050   29.3090   11.6170 O.co2     1 R47        -0.5690
     52 N4          7.0000   31.7630    7.1580 N.am      1 R47        -0.2990
     53 H1          7.5383   25.8503    2.0917 H         1 R47         0.0580
     54 H2          9.6021   24.2948    3.7023 H         1 R47         0.0513
     55 H3          8.8086   23.5696    2.2632 H         1 R47         0.0513
     56 H4          5.6913   24.9402    3.3668 H         1 R47         0.0289
     57 H5          3.5851   24.6960    3.9502 H         1 R47         0.0616
     58 H6          1.2272   24.6022    4.6874 H         1 R47         0.0622
     59 H7          2.3402   21.9704    7.8940 H         1 R47         0.0622
     60 H8          4.7075   22.0550    7.1434 H         1 R47         0.0616
     61 H9          0.3026   21.1942    7.3591 H         1 R47         0.0628
     62 H10        -3.4845   23.1715    7.7514 H         1 R47         0.0622
     63 H11        -2.4982   25.2475    6.8288 H         1 R47         0.0617
     64 H12        -0.1142   25.2792    6.1766 H         1 R47         0.0624
     65 H13        10.5222   25.3806    1.6962 H         1 R47         0.0485
     66 H14         9.7075   26.8740    1.1194 H         1 R47         0.0485
     67 H15         8.6472   26.3946   -2.7278 H         1 R47         0.0682
     68 H16        10.2056   27.4422   -4.3563 H         1 R47         0.0655
     69 H17        13.5382   26.2808   -1.9195 H         1 R47         0.0655
     70 H18        11.9866   25.2185   -0.3104 H         1 R47         0.0682
     71 H19         7.5040   27.9310    2.7580 H         1 R47         0.1883
     72 H20         9.6629   28.8607    4.5276 H         1 R47         0.0801
     73 H21         8.4817   31.0855    4.2473 H         1 R47         0.0330
     74 H22         7.3115   30.2528    3.1685 H         1 R47         0.0330
     75 H23         9.0543   29.6895    1.6020 H         1 R47         0.0433
     76 H24        10.3237   30.2884    2.7230 H         1 R47         0.0433
     77 H25         9.4447   29.8167    6.4612 H         1 R47         0.1883
     78 H26         7.5003   28.6732    8.2348 H         1 R47         0.0801
     79 H27         9.3480   31.0940    8.5010 H         1 R47         0.0330
     80 H28         9.8560   29.3863    8.7299 H         1 R47         0.0330
     81 H29         8.1285   29.2430   10.5891 H         1 R47         0.0433
     82 H30         7.9493   31.0244   10.4444 H         1 R47         0.0433
     83 H31         6.2983   32.4746    7.1237 H         1 R47         0.1815
     84 H32         7.8471   31.8706    6.6376 H         1 R47         0.1815
@<TRIPOS>BOND
     1    4    1 2  
     2    2    3 1  
     3    8    2 2  
     4   15    3 1  
     5    5    4 1  
     6    4   34 am 
     7    6    5 1  
     8    5   23 1  
     9   15    6 1  
    10    8    7 1  
    11    7   15 2  
    12    9    8 1  
    13   10    9 ar 
    14   14    9 ar 
    15   11   10 ar 
    16   12   11 ar 
    17   12   13 ar 
    18   22   12 1  
    19   13   14 ar 
    20   17   16 1  
    21   18   17 ar 
    22   17   19 ar 
    23   18   22 ar 
    24   19   20 ar 
    25   20   21 ar 
    26   21   22 ar 
    27   23   24 1  
    28   24   25 ar 
    29   24   26 ar 
    30   24   27 1  
    31   27   28 ar 
    32   27   33 ar 
    33   28   29 ar 
    34   29   30 ar 
    35   30   31 1  
    36   30   32 ar 
    37   32   33 ar 
    38   34   35 1  
    39   35   36 1  
    40   35   38 1  
    41   36   37 2  
    42   36   43 am 
    43   38   39 1  
    44   39   40 1  
    45   40   41 ar 
    46   40   42 ar 
    47   43   44 1  
    48   44   45 1  
    49   44   47 1  
    50   45   46 2  
    51   45   52 am 
    52   47   48 1  
    53   48   49 1  
    54   49   50 ar 
    55   49   51 ar 
    56    5   53 1  
    57    6   54 1  
    58    6   55 1  
    59    7   56 1  
    60   10   57 1  
    61   11   58 1  
    62   13   59 1  
    63   14   60 1  
    64   18   61 1  
    65   19   62 1  
    66   20   63 1  
    67   21   64 1  
    68   23   65 1  
    69   23   66 1  
    70   28   67 1  
    71   29   68 1  
    72   32   69 1  
    73   33   70 1  
    74   34   71 1  
    75   35   72 1  
    76   38   73 1  
    77   38   74 1  
    78   39   75 1  
    79   39   76 1  
    80   43   77 1  
    81   44   78 1  
    82   47   79 1  
    83   47   80 1  
    84   48   81 1  
    85   48   82 1  
    86   52   83 1  
    87   52   84 1  
@<TRIPOS>SUBSTRUCTURE
     1 R47         1

