### 
### Created by X-TOOL on Fri Nov 18 12:20:07 2016
### 

@<TRIPOS>MOLECULE
5tmp_ligand
   81    85     1     0     0
SMALL
GAST_HUCK


@<TRIPOS>ATOM
      1 N1T        24.8300  100.6090   17.6250 N.am      1 Z5A        -0.1735
      2 C2T        25.8020   99.7770   18.1640 C.2       1 Z5A         0.3265
      3 O2T        25.7460   99.3870   19.3310 O.2       1 Z5A        -0.3843
      4 N3T        26.7930   99.3400   17.2530 N.am      1 Z5A        -0.1859
      5 C4T        26.6890   99.4790   15.8470 C.2       1 Z5A         0.1930
      6 O4T        27.4850   98.9250   15.0980 O.2       1 Z5A        -0.4079
      7 C5T        25.6490  100.3330   15.3660 C.2       1 Z5A         0.0225
      8 C6T        24.7850  100.8990   16.2530 C.2       1 Z5A         0.0524
      9 C7T        25.5690  100.6330   13.8470 C.3       1 Z5A        -0.0437
     10 C5'        20.5790  102.5880   17.7280 C.3       1 Z5A         0.1155
     11 O5'        21.2390  103.3060   16.7350 O.3       1 Z5A        -0.2475
     12 C4'        21.7040  101.9290   18.4960 C.3       1 Z5A         0.1483
     13 O4'        22.5950  101.1600   17.6420 O.3       1 Z5A        -0.3364
     14 C3'        22.5490  102.7390   19.4510 C.3       1 Z5A         0.2518
     15 C2'        23.9110  102.3080   19.0590 C.3       1 Z5A         0.0633
     16 C1'        23.7320  100.9700   18.4870 C.3       1 Z5A         0.1785
     17 NA3        22.3430  102.2420   20.8140 N.2       1 Z5A         0.1721
     18 N3B        22.7990  102.9190   21.7370 N.1       1 Z5A         0.1296
     19 N3C        23.1510  103.4250   22.6750 N.1       1 Z5A         0.2334
     20 PA         20.5170  104.1380   15.6090 P.3       1 Z5A         0.2978
     21 O1P        19.5160  103.3130   14.8790 O.co2     1 Z5A        -0.6127
     22 O2P        21.3720  105.0780   14.8310 O.co2     1 Z5A        -0.6127
     23 OPA        19.8240  104.9620   16.6090 O.3       1 Z5A        -0.1265
     24 PB         18.6590  105.9450   16.6280 P.3       1 Z5A         0.3361
     25 O3P        19.0540  107.0480   17.5400 O.co2     1 Z5A        -0.6079
     26 O4P        17.3590  105.2070   16.7690 O.co2     1 Z5A        -0.6079
     27 OPB        18.6140  106.5790   15.1800 O.3       1 Z5A        -0.1210
     28 PC         17.8820  107.7370   14.5000 P.3       1 Z5A         0.3367
     29 O5P        17.8190  107.5040   13.0530 O.co2     1 Z5A        -0.6078
     30 O6P        16.6530  107.9870   15.3210 O.co2     1 Z5A        -0.6078
     31 OPC        18.8420  108.9310   14.7940 O.3       1 Z5A        -0.1210
     32 PD         18.8090  110.4860   14.6860 P.3       1 Z5A         0.3361
     33 O7P        17.3960  110.8900   14.7580 O.co2     1 Z5A        -0.6079
     34 O8P        19.5840  110.7240   13.4640 O.co2     1 Z5A        -0.6079
     35 OPD        19.5140  111.1720   15.9470 O.3       1 Z5A        -0.1265
     36 PE         19.6130  112.6570   16.6440 P.3       1 Z5A         0.2978
     37 O9P        20.6360  112.5660   17.6960 O.co2     1 Z5A        -0.6127
     38 OAP        19.7390  113.7020   15.5920 O.co2     1 Z5A        -0.6127
     39 O5'        18.1990  112.9170   17.3640 O.3       1 Z5A        -0.2476
     40 C5'        17.8250  112.2260   18.5350 C.3       1 Z5A         0.1128
     41 C4'        16.8740  112.9690   19.4230 C.3       1 Z5A         0.1189
     42 O4'        17.5200  114.0150   20.1710 O.3       1 Z5A        -0.3364
     43 C3'        15.6490  113.6140   18.6280 C.3       1 Z5A         0.1149
     44 O3'        14.4870  113.5780   19.4780 O.3       1 Z5A        -0.3864
     45 C2'        16.1420  115.0450   18.4360 C.3       1 Z5A         0.1385
     46 O2'        15.1160  116.0470   18.1960 O.3       1 Z5A        -0.3836
     47 C1'        16.9690  115.2780   19.7200 C.3       1 Z5A         0.2010
     48 N9A        18.0260  116.2850   19.4850 N.pl3     1 Z5A        -0.1919
     49 C8A        19.0670  116.3270   18.5740 C.2       1 Z5A         0.1123
     50 N7A        19.6880  117.4820   18.5530 N.2       1 Z5A        -0.2958
     51 C5A        19.1400  118.1440   19.6700 C.ar      1 Z5A         0.1045
     52 C6A        19.3950  119.4100   20.2710 C.ar      1 Z5A         0.1298
     53 N6A        20.3650  120.2290   19.8350 N.pl3     1 Z5A        -0.3152
     54 N1A        18.5690  119.8030   21.2910 N.ar      1 Z5A        -0.2698
     55 C2A        17.5680  118.9980   21.6550 C.ar      1 Z5A         0.0533
     56 N3A        17.1790  117.8580   21.0830 N.ar      1 Z5A        -0.2714
     57 C4A        18.0120  117.5000   20.0920 C.ar      1 Z5A         0.1613
     58 H1         27.6150   98.9076   17.6236 H         1 Z5A         0.2259
     59 H2         24.0355  101.5987   15.8861 H         1 Z5A         0.1011
     60 H3         26.3565  100.0735   13.3208 H         1 Z5A         0.0296
     61 H4         25.7098  101.7108   13.6782 H         1 Z5A         0.0296
     62 H5         24.5840  100.3275   13.4643 H         1 Z5A         0.0296
     63 H6         19.9993  103.2592   18.3787 H         1 Z5A         0.0649
     64 H7         19.9090  101.8344   17.2885 H         1 Z5A         0.0649
     65 H8         21.1888  101.1970   19.1354 H         1 Z5A         0.0680
     66 H9         22.3815  103.8232   19.3706 H         1 Z5A         0.1024
     67 H10        24.3345  102.9951   18.3117 H         1 Z5A         0.0373
     68 H11        24.5723  102.2684   19.9371 H         1 Z5A         0.0373
     69 H12        23.5703  100.2076   19.2632 H         1 Z5A         0.0960
     70 H13        18.7364  112.0115   19.1123 H         1 Z5A         0.0648
     71 H14        17.3483  111.2803   18.2375 H         1 Z5A         0.0648
     72 H15        16.4663  112.2406   20.1394 H         1 Z5A         0.0651
     73 H16        15.4491  113.1103   17.6708 H         1 Z5A         0.0648
     74 H17        14.7062  113.9418   20.3278 H         1 Z5A         0.2100
     75 H18        16.8135  115.0732   17.5653 H         1 Z5A         0.0676
     76 H19        14.5052  116.0538   18.9236 H         1 Z5A         0.2101
     77 H20        16.2990  115.6628   20.5030 H         1 Z5A         0.0996
     78 H21        19.3425  115.4863   17.9390 H         1 Z5A         0.1349
     79 H22        20.5183  121.1370   20.2964 H         1 Z5A         0.1820
     80 H23        20.9560  119.9494   19.0391 H         1 Z5A         0.1820
     81 H24        17.0005  119.3102   22.5242 H         1 Z5A         0.0996
@<TRIPOS>BOND
     1    1   16 1  
     2    1    8 am 
     3    1    2 am 
     4    2    4 am 
     5    2    3 2  
     6    4    5 am 
     7    5    7 1  
     8    5    6 2  
     9    7    9 1  
    10    7    8 2  
    11   16   15 1  
    12   16   13 1  
    13   13   12 1  
    14   12   14 1  
    15   12   10 1  
    16   10   11 1  
    17   11   20 1  
    18   20   23 1  
    19   20   22 ar 
    20   20   21 ar 
    21   23   24 1  
    22   24   27 1  
    23   24   26 ar 
    24   24   25 ar 
    25   27   28 1  
    26   28   31 1  
    27   28   30 ar 
    28   28   29 ar 
    29   31   32 1  
    30   32   35 1  
    31   32   34 ar 
    32   32   33 ar 
    33   35   36 1  
    34   36   39 1  
    35   36   38 ar 
    36   36   37 ar 
    37   39   40 1  
    38   40   41 1  
    39   41   43 1  
    40   41   42 1  
    41   42   47 1  
    42   47   48 1  
    43   47   45 1  
    44   45   46 1  
    45   45   43 1  
    46   43   44 1  
    47   48   57 1  
    48   48   49 1  
    49   49   50 2  
    50   50   51 1  
    51   51   57 ar 
    52   51   52 ar 
    53   52   54 ar 
    54   52   53 1  
    55   54   55 ar 
    56   55   56 ar 
    57   56   57 ar 
    58   14   17 1  
    59   14   15 1  
    60   17   18 2  
    61   18   19 3  
    62    4   58 1  
    63    8   59 1  
    64    9   60 1  
    65    9   61 1  
    66    9   62 1  
    67   10   63 1  
    68   10   64 1  
    69   12   65 1  
    70   14   66 1  
    71   15   67 1  
    72   15   68 1  
    73   16   69 1  
    74   40   70 1  
    75   40   71 1  
    76   41   72 1  
    77   43   73 1  
    78   44   74 1  
    79   45   75 1  
    80   46   76 1  
    81   47   77 1  
    82   49   78 1  
    83   53   79 1  
    84   53   80 1  
    85   55   81 1  
@<TRIPOS>SUBSTRUCTURE
     1 Z5A         1

