### 
### Created by X-TOOL on Fri Nov 18 14:40:19 2016
### 

@<TRIPOS>MOLECULE
2j27_ligand
   11    10     1     0     0
SMALL
GAST_HUCK


@<TRIPOS>ATOM
      1 P          13.0610    6.1850    5.4680 P.3       1 PGA         0.2032
      2 O1P        14.3700    6.3790    6.4440 O.3       1 PGA        -0.2622
      3 O2P        13.1900    7.2460    4.4020 O.co2     1 PGA        -0.5536
      4 O3P        11.8290    6.4020    6.3430 O.co2     1 PGA        -0.5536
      5 O4P        13.1710    4.7950    4.9530 O.co2     1 PGA        -0.5536
      6 C2         14.5310    7.7100    7.1250 C.3       1 PGA         0.1305
      7 C1         15.4470    7.6100    8.1930 C.2       1 PGA         0.0653
      8 O1         15.3880    8.6510    9.0220 O.co2     1 PGA        -0.5663
      9 O2         16.2100    6.6680    8.3260 O.co2     1 PGA        -0.5663
     10 H1         13.5558    8.0382    7.5139 H         1 PGA         0.0783
     11 H2         14.9023    8.4466    6.3973 H         1 PGA         0.0783
@<TRIPOS>BOND
     1    1    2 1  
     2    1    3 ar 
     3    1    4 ar 
     4    1    5 ar 
     5    2    6 1  
     6    6    7 1  
     7    7    8 ar 
     8    7    9 ar 
     9    6   10 1  
    10    6   11 1  
@<TRIPOS>SUBSTRUCTURE
     1 PGA         1

