### 
### Created by X-TOOL on Fri Nov 18 13:32:01 2016
### 

@<TRIPOS>MOLECULE
1nki_ligand
    7     6     1     0     0
SMALL
GAST_HUCK


@<TRIPOS>ATOM
      1 C1         36.7970   35.6310   17.3340 C.2       1 PPF         0.1699
      2 O1         35.4740   36.8030   15.4710 O.co2     1 PPF        -0.5941
      3 O2         37.4360   38.0660   16.2930 O.co2     1 PPF        -0.5941
      4 O3         35.4310   37.8150   17.7760 O.co2     1 PPF        -0.5941
      5 O4         37.5800   35.5780   18.3440 O.co2     1 PPF        -0.4901
      6 O5         36.3700   34.5430   16.8120 O.co2     1 PPF        -0.4901
      7 P1         36.2520   37.2150   16.6880 P.3       1 PPF         0.0927
@<TRIPOS>BOND
     1    1    5 ar 
     2    1    6 ar 
     3    1    7 1  
     4    7    2 ar 
     5    7    3 ar 
     6    7    4 ar 
@<TRIPOS>SUBSTRUCTURE
     1 PPF         1

