### 
### Created by X-TOOL on Wed Dec 13 14:18:40 2017
### 

@<TRIPOS>MOLECULE
5f74_ligand
   35    37     1     0     0
SMALL
GAST_HUCK


@<TRIPOS>ATOM
      1 P          13.8360   41.1870   10.4360 P.3       1 AMP         0.2008
      2 O1P        12.7350   40.9670    9.4300 O.co2     1 AMP        -0.5537
      3 O2P        15.1460   40.4990   10.1690 O.co2     1 AMP        -0.5537
      4 O3P        13.3540   41.3110   11.8670 O.co2     1 AMP        -0.5537
      5 O5'        14.2410   42.8830   10.1460 O.3       1 AMP        -0.2734
      6 C5'        15.4810   43.3390   10.4500 C.3       1 AMP         0.1072
      7 C4'        16.0310   44.1640    9.1840 C.3       1 AMP         0.1182
      8 O4'        16.9710   43.3480    8.5090 O.3       1 AMP        -0.3365
      9 C3'        14.8970   44.5010    8.1200 C.3       1 AMP         0.1149
     10 O3'        14.4870   45.8530    8.1710 O.3       1 AMP        -0.3864
     11 C2'        15.5860   44.1780    6.7130 C.3       1 AMP         0.1385
     12 O2'        15.9270   45.3880    6.0420 O.3       1 AMP        -0.3836
     13 C1'        17.0060   43.5620    7.1230 C.3       1 AMP         0.2010
     14 N9         17.4130   42.2980    6.3260 N.pl3     1 AMP        -0.1919
     15 C8         17.0910   40.9190    6.6290 C.2       1 AMP         0.1123
     16 N7         17.6070   40.0380    5.7380 N.2       1 AMP        -0.2958
     17 C5         18.3100   40.8400    4.7980 C.ar      1 AMP         0.1045
     18 C6         19.0710   40.5080    3.6310 C.ar      1 AMP         0.1298
     19 N6         19.2440   39.1910    3.2070 N.pl3     1 AMP        -0.3152
     20 N1         19.6630   41.5160    2.8670 N.ar      1 AMP        -0.2698
     21 C2         19.4710   42.8100    3.3240 C.ar      1 AMP         0.0533
     22 N3         18.7880   43.2710    4.3900 N.ar      1 AMP        -0.2714
     23 C4         18.1970   42.2430    5.1450 C.ar      1 AMP         0.1613
     24 H1         16.1490   42.4912   10.6619 H         1 AMP         0.0639
     25 H2         15.4316   43.9960   11.3308 H         1 AMP         0.0639
     26 H3         16.5016   45.0953    9.5321 H         1 AMP         0.0650
     27 H4         14.0206   43.8560    8.2807 H         1 AMP         0.0648
     28 H5         15.2314   46.4155    7.9923 H         1 AMP         0.2100
     29 H6         14.9745   43.5095    6.0892 H         1 AMP         0.0676
     30 H7         15.1400   45.8989    5.8932 H         1 AMP         0.2101
     31 H8         17.7730   44.3227    6.9155 H         1 AMP         0.0996
     32 H9         16.4930   40.6194    7.4884 H         1 AMP         0.1349
     33 H10        19.7983   38.9905    2.3623 H         1 AMP         0.1820
     34 H11        18.8175   38.4186    3.7385 H         1 AMP         0.1820
     35 H12        19.9487   43.5773    2.7256 H         1 AMP         0.0996
@<TRIPOS>BOND
     1    1    2 ar 
     2    1    3 ar 
     3    1    4 ar 
     4    1    5 1  
     5    5    6 1  
     6    6    7 1  
     7    7    8 1  
     8    7    9 1  
     9    8   13 1  
    10    9   10 1  
    11    9   11 1  
    12   11   12 1  
    13   11   13 1  
    14   13   14 1  
    15   14   15 1  
    16   14   23 1  
    17   15   16 2  
    18   16   17 1  
    19   17   18 ar 
    20   17   23 ar 
    21   18   19 1  
    22   18   20 ar 
    23   20   21 ar 
    24   21   22 ar 
    25   22   23 ar 
    26    6   24 1  
    27    6   25 1  
    28    7   26 1  
    29    9   27 1  
    30   10   28 1  
    31   11   29 1  
    32   12   30 1  
    33   13   31 1  
    34   15   32 1  
    35   19   33 1  
    36   19   34 1  
    37   21   35 1  
@<TRIPOS>SUBSTRUCTURE
     1 AMP         1

