### 
### Created by X-TOOL on Fri Nov 18 12:11:28 2016
### 

@<TRIPOS>MOLECULE
2wec_ligand
   70    72     1     0     0
SMALL
GAST_HUCK


@<TRIPOS>ATOM
      1 OI         17.3100    4.0380   19.5450 O.2       1 MOL        -0.3936
      2 C1         14.4910    4.2810   19.1430 C.ar      1 MOL        -0.0138
      3 C2         13.6660    3.1820   18.9680 C.ar      1 MOL        -0.0583
      4 C3         12.6620    2.8580   19.9120 C.ar      1 MOL        -0.0702
      5 C4         12.4470    3.6170   21.0620 C.ar      1 MOL        -0.0627
      6 C5         13.2870    4.7830   21.2830 C.ar      1 MOL        -0.0239
      7 C6         14.2990    5.1100   20.3310 C.ar      1 MOL        -0.0100
      8 C7         15.1100    6.2540   20.5700 C.ar      1 MOL        -0.0546
      9 C8         14.9470    7.0550   21.6940 C.ar      1 MOL        -0.0625
     10 C9         13.9450    6.7400   22.6320 C.ar      1 MOL        -0.0629
     11 C10        13.1420    5.6320   22.4200 C.ar      1 MOL        -0.0568
     12 C11        15.5510    4.5630   18.0780 C.3       1 MOL         0.0727
     13 C12        16.9450    4.7810   18.6330 C.2       1 MOL         0.1907
     14 C14        20.1920    8.8230   21.0700 C.3       1 MOL         0.1204
     15 NV         18.0100    5.5590   18.4580 N.am      1 MOL        -0.2636
     16 CAV        19.3460    5.8100   19.0050 C.3       1 MOL         0.1332
     17 CV         19.2600    7.2470   19.5720 C.2       1 MOL         0.2032
     18 OV         18.3940    8.0880   19.2090 O.2       1 MOL        -0.3945
     19 CBV        20.4930    5.9580   17.9970 C.3       1 MOL        -0.0062
     20 CV1        20.4440    4.5830   17.3320 C.3       1 MOL        -0.0584
     21 CV2        20.2190    6.8970   16.8240 C.3       1 MOL        -0.0584
     22 NL         20.2080    7.4740   20.4850 N.am      1 MOL        -0.2668
     23 P          21.6660    9.1360   22.0970 P.3       1 MOL         0.1468
     24 O          22.5810   10.0710   21.4550 O.co2     1 MOL        -0.6189
     25 OH         22.2520    7.8940   22.5710 O.co2     1 MOL        -0.6189
     26 CA         20.7550   11.1110   23.4310 C.3       1 MOL         0.2011
     27 CB         19.3880   11.3950   24.0660 C.3       1 MOL         0.0314
     28 CG         19.2920   11.0050   25.5130 C.ar      1 MOL        -0.0378
     29 CD1        20.0320   11.6790   26.4900 C.ar      1 MOL        -0.0601
     30 CD2        18.4530    9.9690   25.9060 C.ar      1 MOL        -0.0601
     31 CE1        19.9430   11.3160   27.8270 C.ar      1 MOL        -0.0686
     32 CE2        18.3540    9.6040   27.2480 C.ar      1 MOL        -0.0686
     33 CZ         19.1000   10.2770   28.2080 C.ar      1 MOL        -0.0687
     34 C          21.8670   11.8460   24.1640 C.2       1 MOL         0.2708
     35 CS         22.5700   14.1300   24.3970 C.3       1 MOL         0.0659
     36 OP         21.0200    9.7180   23.3980 O.3       1 MOL        -0.2512
     37 OS         21.5390   13.1650   24.0740 O.3       1 MOL        -0.2778
     38 OE         22.9460   11.3900   24.4870 O.2       1 MOL        -0.3668
     39 H1         13.7917    2.5577   18.0908 H         1 MOL         0.0535
     40 H2         12.0383    1.9893   19.7347 H         1 MOL         0.0596
     41 H3         11.6744    3.3450   21.7720 H         1 MOL         0.0546
     42 H4         15.8806    6.5094   19.8517 H         1 MOL         0.0628
     43 H5         15.5869    7.9164   21.8476 H         1 MOL         0.0602
     44 H6         13.8038    7.3585   23.5109 H         1 MOL         0.0616
     45 H7         12.3723    5.4005   23.1473 H         1 MOL         0.0609
     46 H8         15.2539    5.4669   17.5261 H         1 MOL         0.0671
     47 H9         15.5840    3.7066   17.3885 H         1 MOL         0.0671
     48 H10        20.1615    9.5630   20.2567 H         1 MOL         0.0749
     49 H11        19.2935    8.9286   21.6958 H         1 MOL         0.0749
     50 H12        17.8419    6.1836   17.6954 H         1 MOL         0.1884
     51 H13        19.5918    5.0540   19.7653 H         1 MOL         0.0802
     52 H14        21.4461    6.1974   18.4912 H         1 MOL         0.0343
     53 H15        21.2257    4.5207   16.5606 H         1 MOL         0.0234
     54 H16        19.4579    4.4353   16.8674 H         1 MOL         0.0234
     55 H17        20.6132    3.8032   18.0892 H         1 MOL         0.0234
     56 H18        20.2279    7.9384   17.1782 H         1 MOL         0.0234
     57 H19        19.2347    6.6654   16.3910 H         1 MOL         0.0234
     58 H20        20.9971    6.7636   16.0580 H         1 MOL         0.0234
     59 H21        20.8772    6.7799   20.7504 H         1 MOL         0.1868
     60 H22        20.7297   11.4784   22.3945 H         1 MOL         0.0945
     61 H23        18.6239   10.8359   23.5060 H         1 MOL         0.0482
     62 H24        19.1865   12.4733   23.9847 H         1 MOL         0.0482
     63 H25        20.6834   12.4953   26.1995 H         1 MOL         0.0557
     64 H26        17.8696    9.4393   25.1615 H         1 MOL         0.0557
     65 H27        20.5291   11.8410   28.5725 H         1 MOL         0.0599
     66 H28        17.6951    8.7952   27.5425 H         1 MOL         0.0599
     67 H29        19.0252    9.9930   29.2515 H         1 MOL         0.0559
     68 H30        22.1686   15.1477   24.2822 H         1 MOL         0.0577
     69 H31        23.4249   13.9943   23.7182 H         1 MOL         0.0577
     70 H32        22.8994   13.9809   25.4359 H         1 MOL         0.0577
@<TRIPOS>BOND
     1   13    1 2  
     2    2    3 ar 
     3    2    7 ar 
     4   12    2 1  
     5    3    4 ar 
     6    4    5 ar 
     7    6    5 ar 
     8    7    6 ar 
     9    6   11 ar 
    10    7    8 ar 
    11    8    9 ar 
    12    9   10 ar 
    13   11   10 ar 
    14   13   12 1  
    15   15   13 am 
    16   16   15 1  
    17   17   16 1  
    18   16   19 1  
    19   17   18 2  
    20   22   17 am 
    21   19   20 1  
    22   19   21 1  
    23   23   24 ar 
    24   23   25 ar 
    25   23   36 1  
    26   26   27 1  
    27   26   34 1  
    28   36   26 1  
    29   27   28 1  
    30   28   29 ar 
    31   28   30 ar 
    32   29   31 ar 
    33   30   32 ar 
    34   31   33 ar 
    35   32   33 ar 
    36   34   37 1  
    37   34   38 2  
    38   37   35 1  
    39   14   23 1  
    40   22   14 1  
    41    3   39 1  
    42    4   40 1  
    43    5   41 1  
    44    8   42 1  
    45    9   43 1  
    46   10   44 1  
    47   11   45 1  
    48   12   46 1  
    49   12   47 1  
    50   14   48 1  
    51   14   49 1  
    52   15   50 1  
    53   16   51 1  
    54   19   52 1  
    55   20   53 1  
    56   20   54 1  
    57   20   55 1  
    58   21   56 1  
    59   21   57 1  
    60   21   58 1  
    61   22   59 1  
    62   26   60 1  
    63   27   61 1  
    64   27   62 1  
    65   29   63 1  
    66   30   64 1  
    67   31   65 1  
    68   32   66 1  
    69   33   67 1  
    70   35   68 1  
    71   35   69 1  
    72   35   70 1  
@<TRIPOS>SUBSTRUCTURE
     1 MOL         1

