### 
### Created by X-TOOL on Fri Nov 18 17:47:48 2016
### 

@<TRIPOS>MOLECULE
4ncn_ligand
   45    47     1     0     0
SMALL
GAST_HUCK


@<TRIPOS>ATOM
      1 PG        -11.2370   12.5140   12.7100 P.3       1 GTP         0.1879
      2 O1G        -9.7950   12.1610   12.5480 O.co2     1 GTP        -0.6091
      3 O2G       -11.7100   12.2350   14.1170 O.co2     1 GTP        -0.6091
      4 O3G       -12.0620   11.9650   11.5750 O.co2     1 GTP        -0.6091
      5 O3B       -11.4070   14.1120   12.3560 O.3       1 GTP        -0.1546
      6 PB        -10.4160   15.3100   12.8060 P.3       1 GTP         0.3553
      7 O1B       -10.5870   15.7180   14.2490 O.co2     1 GTP        -0.5652
      8 O2B        -8.9610   15.0340   12.4430 O.co2     1 GTP        -0.5652
      9 O3A       -10.9370   16.5680   11.9870 O.3       1 GTP        -0.1171
     10 PA        -10.6210   16.8840   10.4190 P.3       1 GTP         0.3266
     11 O1A        -9.2570   17.4580   10.2530 O.co2     1 GTP        -0.5692
     12 O2A       -10.9010   15.6350    9.5870 O.co2     1 GTP        -0.5692
     13 O5'       -11.6560   18.0640   10.1200 O.3       1 GTP        -0.2441
     14 C5'       -13.0700   17.7930   10.0150 C.3       1 GTP         0.1131
     15 C4'       -13.7150   18.9060    9.1790 C.3       1 GTP         0.1190
     16 O4'       -13.6160   20.0750   10.0040 O.3       1 GTP        -0.3347
     17 C3'       -12.9830   19.2370    7.8820 C.3       1 GTP         0.1151
     18 O3'       -13.9480   19.5770    6.9260 O.3       1 GTP        -0.3864
     19 C2'       -12.2410   20.4920    8.2240 C.3       1 GTP         0.1407
     20 O2'       -11.8790   21.2910    7.1010 O.3       1 GTP        -0.3835
     21 C1'       -13.1550   21.1640    9.2550 C.3       1 GTP         0.2218
     22 N9        -12.3010   21.9610   10.1760 N.pl3     1 GTP        -0.0954
     23 C8        -11.2230   21.5220   10.9470 C.2       1 GTP         0.1855
     24 N7        -10.7370   22.6290   11.6120 N.2       1 GTP        -0.1929
     25 C5        -11.5150   23.6910   11.2990 C.2       1 GTP         0.2558
     26 C6        -11.5160   25.0300   11.6790 C.2       1 GTP         0.2628
     27 O6        -10.6460   25.4600   12.4430 O.2       1 GTP        -0.3594
     28 N1        -12.4280   25.9030   11.1250 N.am      1 GTP        -0.2478
     29 C2        -13.4080   25.4540   10.2530 C.cat     1 GTP         0.2041
     30 N2        -14.3630   26.2610    9.7190 N.pl3     1 GTP        -0.3327
     31 N3        -13.4290   24.1460    9.9290 N.pl3     1 GTP        -0.1901
     32 C4        -12.4900   23.2850   10.4160 C.2       1 GTP         0.3268
     33 H         -13.5202   17.7737   11.0185 H         1 GTP         0.0648
     34 H         -13.2267   16.8212    9.5240 H         1 GTP         0.0648
     35 H         -14.7618   18.6509    8.9576 H         1 GTP         0.0651
     36 H         -12.3251   18.4249    7.5390 H         1 GTP         0.0648
     37 H         -13.5185   19.7885    6.1055 H         1 GTP         0.2100
     38 H         -11.2990   20.2188    8.7219 H         1 GTP         0.0677
     39 H         -11.3181   20.7872    6.5230 H         1 GTP         0.2101
     40 H         -13.9590   21.7614    8.8004 H         1 GTP         0.1021
     41 H         -10.8404   20.5044   11.0110 H         1 GTP         0.1823
     42 H         -12.3820   26.8750   11.3556 H         1 GTP         0.1819
     43 H         -15.0664   25.8706    9.0758 H         1 GTP         0.1774
     44 H         -14.3831   27.2628    9.9576 H         1 GTP         0.1774
     45 H         -14.1662   23.7908    9.3034 H         1 GTP         0.2519
@<TRIPOS>BOND
     1    1    2 ar 
     2    1    3 ar 
     3    1    4 ar 
     4    1    5 1  
     5    5    6 1  
     6    6    7 ar 
     7    6    8 ar 
     8    6    9 1  
     9    9   10 1  
    10   10   11 ar 
    11   10   12 ar 
    12   10   13 1  
    13   13   14 1  
    14   14   15 1  
    15   15   16 1  
    16   15   17 1  
    17   16   21 1  
    18   17   18 1  
    19   17   19 1  
    20   19   20 1  
    21   19   21 1  
    22   21   22 1  
    23   22   23 1  
    24   22   32 1  
    25   23   24 2  
    26   24   25 1  
    27   25   26 1  
    28   25   32 2  
    29   26   27 2  
    30   26   28 am 
    31   28   29 ar 
    32   29   30 ar 
    33   29   31 ar 
    34   31   32 1  
    35   14   33 1  
    36   14   34 1  
    37   15   35 1  
    38   17   36 1  
    39   18   37 1  
    40   19   38 1  
    41   20   39 1  
    42   21   40 1  
    43   23   41 1  
    44   28   42 1  
    45   30   43 1  
    46   30   44 1  
    47   31   45 1  
@<TRIPOS>SUBSTRUCTURE
     1 GTP         1

