### 
### Created by X-TOOL on Fri Nov 18 17:59:26 2016
### 

@<TRIPOS>MOLECULE
4q46_ligand
   41    43     1     0     0
SMALL
GAST_HUCK


@<TRIPOS>ATOM
      1 PB         28.2360    2.7640    4.9840 P.3       1 GDP         0.2069
      2 O1B        28.6530    3.8050    5.9720 O.co2     1 GDP        -0.5891
      3 O2B        29.0950    1.5350    5.1540 O.co2     1 GDP        -0.5891
      4 O3B        28.2870    3.3730    3.6430 O.co2     1 GDP        -0.5891
      5 O3A        26.8440    2.1280    5.4530 O.3       1 GDP        -0.1548
      6 PA         25.4440    2.7230    5.7600 P.3       1 GDP         0.3276
      7 O1A        25.4010    4.0650    6.4690 O.co2     1 GDP        -0.5556
      8 O2A        24.6610    1.6190    6.3590 O.co2     1 GDP        -0.5556
      9 O5'        24.7150    2.9790    4.3680 O.3       1 GDP        -0.2436
     10 C5'        24.6260    1.9550    3.3680 C.3       1 GDP         0.1132
     11 C4'        23.5790    2.4410    2.3320 C.3       1 GDP         0.1190
     12 O4'        23.6930    1.5370    1.2180 O.3       1 GDP        -0.3347
     13 C3'        22.1560    2.2850    2.8170 C.3       1 GDP         0.1151
     14 O3'        21.3940    3.3940    2.2310 O.3       1 GDP        -0.3864
     15 C2'        21.7690    0.8650    2.2780 C.3       1 GDP         0.1407
     16 O2'        20.3700    0.7420    2.0600 O.3       1 GDP        -0.3835
     17 C1'        22.4290    0.9710    0.8820 C.3       1 GDP         0.2218
     18 N9         22.7360   -0.3490    0.2970 N.pl3     1 GDP        -0.0954
     19 C8         23.1130   -1.5530    0.9050 C.2       1 GDP         0.1855
     20 N7         23.3370   -2.4650   -0.1060 N.2       1 GDP        -0.1929
     21 C5         23.1500   -1.8360   -1.3120 C.2       1 GDP         0.2558
     22 C6         23.2800   -2.2450   -2.7290 C.2       1 GDP         0.2628
     23 O6         23.6180   -3.4370   -3.0000 O.2       1 GDP        -0.3594
     24 N1         23.0420   -1.3060   -3.6680 N.am      1 GDP        -0.2478
     25 C2         22.6680   -0.0170   -3.3780 C.cat     1 GDP         0.2041
     26 N2         22.4220    0.8780   -4.3640 N.pl3     1 GDP        -0.3327
     27 N3         22.5200    0.4250   -2.0760 N.pl3     1 GDP        -0.1901
     28 C4         22.7700   -0.4690   -1.0450 C.2       1 GDP         0.3268
     29 H1         24.2998    1.0077    3.8221 H         1 GDP         0.0648
     30 H2         25.6027    1.8119    2.8826 H         1 GDP         0.0648
     31 H3         23.7777    3.4835    2.0426 H         1 GDP         0.0651
     32 H4         22.0807    2.3174    3.9139 H         1 GDP         0.0648
     33 H5         20.4877    3.3365    2.5102 H         1 GDP         0.2100
     34 H6         22.1546    0.0447    2.9012 H         1 GDP         0.0677
     35 H7         19.9093    0.8852    2.8784 H         1 GDP         0.2101
     36 H8         21.8378    1.5881    0.1894 H         1 GDP         0.1021
     37 H9         23.2109   -1.7351    1.9742 H         1 GDP         0.1823
     38 H10        23.1436   -1.5631   -4.6290 H         1 GDP         0.1819
     39 H11        22.1424    1.8407   -4.1276 H         1 GDP         0.1774
     40 H12        22.5145    0.5960   -5.3503 H         1 GDP         0.1774
     41 H13        22.2314    1.3935   -1.8767 H         1 GDP         0.2519
@<TRIPOS>BOND
     1    1    2 ar 
     2    1    3 ar 
     3    1    4 ar 
     4    1    5 1  
     5    5    6 1  
     6    6    7 ar 
     7    6    8 ar 
     8    6    9 1  
     9    9   10 1  
    10   10   11 1  
    11   11   12 1  
    12   11   13 1  
    13   12   17 1  
    14   13   14 1  
    15   13   15 1  
    16   15   16 1  
    17   15   17 1  
    18   17   18 1  
    19   18   19 1  
    20   18   28 1  
    21   19   20 2  
    22   20   21 1  
    23   21   22 1  
    24   21   28 2  
    25   22   23 2  
    26   22   24 am 
    27   24   25 ar 
    28   25   26 ar 
    29   25   27 ar 
    30   27   28 1  
    31   10   29 1  
    32   10   30 1  
    33   11   31 1  
    34   13   32 1  
    35   14   33 1  
    36   15   34 1  
    37   16   35 1  
    38   17   36 1  
    39   19   37 1  
    40   24   38 1  
    41   26   39 1  
    42   26   40 1  
    43   27   41 1  
@<TRIPOS>SUBSTRUCTURE
     1 GDP         1

