### 
### Created by X-TOOL on Fri Nov 18 17:11:12 2016
### 

@<TRIPOS>MOLECULE
4i3z_ligand
   39    41     1     0     0
SMALL
GAST_HUCK


@<TRIPOS>ATOM
      1 PB          1.0620  -36.9150   -4.3740 P.3       1 ADP         0.2069
      2 O1B        -0.2910  -37.0850   -5.0210 O.co2     1 ADP        -0.5891
      3 O2B         2.1550  -36.6300   -5.3750 O.co2     1 ADP        -0.5891
      4 O3B         1.0620  -36.0060   -3.1680 O.co2     1 ADP        -0.5891
      5 PA          2.1970  -38.7120   -2.4200 P.3       1 ADP         0.3276
      6 O1A         2.5170  -37.4610   -1.6480 O.co2     1 ADP        -0.5556
      7 O2A         3.3130  -39.6840   -2.7100 O.co2     1 ADP        -0.5556
      8 O3A         1.4160  -38.3860   -3.8010 O.3       1 ADP        -0.1548
      9 O5'         1.0410  -39.4860   -1.6130 O.3       1 ADP        -0.2436
     10 C5'        -0.1510  -38.7980   -1.2260 C.3       1 ADP         0.1132
     11 C4'        -0.5580  -39.1960    0.1880 C.3       1 ADP         0.1189
     12 O4'        -0.7010  -40.6170    0.2850 O.3       1 ADP        -0.3364
     13 C3'         0.4960  -38.8130    1.2120 C.3       1 ADP         0.1149
     14 O3'         0.2670  -37.5160    1.7750 O.3       1 ADP        -0.3864
     15 C2'         0.3930  -39.8990    2.2620 C.3       1 ADP         0.1385
     16 O2'        -0.5400  -39.5220    3.2840 O.3       1 ADP        -0.3836
     17 C1'        -0.1450  -41.0970    1.5080 C.3       1 ADP         0.2010
     18 N9          1.0210  -41.9610    1.2170 N.pl3     1 ADP        -0.1919
     19 C8          1.8180  -41.8730    0.1330 C.2       1 ADP         0.1123
     20 N7          2.8010  -42.8080    0.1750 N.2       1 ADP        -0.2958
     21 C5          2.6380  -43.5080    1.3130 C.ar      1 ADP         0.1045
     22 C6          3.3290  -44.6370    1.9770 C.ar      1 ADP         0.1298
     23 N6          4.4170  -45.1950    1.4000 N.pl3     1 ADP        -0.3152
     24 N1          2.8440  -45.0780    3.1640 N.ar      1 ADP        -0.2698
     25 C2          1.7600  -44.5110    3.7270 C.ar      1 ADP         0.0533
     26 N3          1.0830  -43.4800    3.1840 N.ar      1 ADP        -0.2714
     27 C4          1.4650  -42.9470    1.9990 C.ar      1 ADP         0.1613
     28 H1         -0.9616  -39.0569   -1.9230 H         1 ADP         0.0648
     29 H2          0.0292  -37.7134   -1.2597 H         1 ADP         0.0648
     30 H3         -1.5104  -38.7040    0.4347 H         1 ADP         0.0651
     31 H4          1.4938  -38.8233    0.7491 H         1 ADP         0.0648
     32 H5          0.9489  -37.3215    2.4072 H         1 ADP         0.2100
     33 H6          1.3754  -40.1143    2.7075 H         1 ADP         0.0676
     34 H7         -0.2472  -38.7185    3.6977 H         1 ADP         0.2101
     35 H8         -0.9010  -41.6378    2.0962 H         1 ADP         0.0996
     36 H9          1.6900  -41.1481   -0.6695 H         1 ADP         0.1349
     37 H10         4.8986  -45.9803    1.8607 H         1 ADP         0.1820
     38 H11         4.7643  -44.8348    0.4997 H         1 ADP         0.1820
     39 H12         1.4111  -44.9076    4.6736 H         1 ADP         0.0996
@<TRIPOS>BOND
     1    1    2 ar 
     2    1    3 ar 
     3    1    4 ar 
     4    8    1 1  
     5    5    6 ar 
     6    5    7 ar 
     7    5    8 1  
     8    5    9 1  
     9    9   10 1  
    10   10   11 1  
    11   11   12 1  
    12   11   13 1  
    13   12   17 1  
    14   13   14 1  
    15   13   15 1  
    16   15   16 1  
    17   15   17 1  
    18   17   18 1  
    19   18   19 1  
    20   18   27 1  
    21   19   20 2  
    22   20   21 1  
    23   21   22 ar 
    24   21   27 ar 
    25   22   23 1  
    26   22   24 ar 
    27   24   25 ar 
    28   25   26 ar 
    29   26   27 ar 
    30   10   28 1  
    31   10   29 1  
    32   11   30 1  
    33   13   31 1  
    34   14   32 1  
    35   15   33 1  
    36   16   34 1  
    37   17   35 1  
    38   19   36 1  
    39   23   37 1  
    40   23   38 1  
    41   25   39 1  
@<TRIPOS>SUBSTRUCTURE
     1 ADP         1

