### 
### Created by X-TOOL on Fri Nov 18 15:13:04 2016
### 

@<TRIPOS>MOLECULE
3bbf_ligand
   41    43     1     0     0
SMALL
GAST_HUCK


@<TRIPOS>ATOM
      1 PB         21.6060   38.1730   33.5790 P.3       1 GDP         0.2069
      2 O1B        20.2160   38.8330   33.6130 O.co2     1 GDP        -0.5891
      3 O2B        22.7030   39.1100   34.1200 O.co2     1 GDP        -0.5891
      4 O3B        21.7060   36.9320   34.3990 O.co2     1 GDP        -0.5891
      5 O3A        22.0370   37.8950   32.0350 O.3       1 GDP        -0.1548
      6 PA         21.2870   37.0870   30.8650 P.3       1 GDP         0.3276
      7 O1A        19.8100   37.0620   31.0450 O.co2     1 GDP        -0.5556
      8 O2A        21.7210   37.6880   29.5570 O.co2     1 GDP        -0.5556
      9 O5'        21.7850   35.5590   30.9630 O.3       1 GDP        -0.2436
     10 C5'        21.1290   34.7710   31.9330 C.3       1 GDP         0.1132
     11 C4'        22.0730   33.7260   32.4630 C.3       1 GDP         0.1190
     12 O4'        22.5050   32.8580   31.4190 O.3       1 GDP        -0.3347
     13 C3'        23.3370   34.3080   33.0770 C.3       1 GDP         0.1151
     14 O3'        23.0620   34.8780   34.3540 O.3       1 GDP        -0.3864
     15 C2'        24.1860   33.0640   33.0810 C.3       1 GDP         0.1407
     16 O2'        23.8130   32.1950   34.1560 O.3       1 GDP        -0.3835
     17 C1'        23.8070   32.4100   31.7620 C.3       1 GDP         0.2218
     18 N9         24.7080   32.8210   30.6800 N.pl3     1 GDP        -0.0954
     19 C8         24.7500   34.0170   30.0480 C.2       1 GDP         0.1855
     20 N7         25.7290   34.0150   29.1200 N.2       1 GDP        -0.1929
     21 C5         26.3060   32.7870   29.1410 C.2       1 GDP         0.2558
     22 C6         27.3760   32.0620   28.4130 C.2       1 GDP         0.2628
     23 O6         28.0620   32.5820   27.5150 O.2       1 GDP        -0.3594
     24 N1         27.6060   30.7910   28.7680 N.am      1 GDP        -0.2478
     25 C2         26.9560   30.1370   29.7350 C.cat     1 GDP         0.2041
     26 N2         27.2960   28.8470   29.9810 N.pl3     1 GDP        -0.3327
     27 N3         25.9490   30.7010   30.4450 N.pl3     1 GDP        -0.1901
     28 C4         25.6160   32.0000   30.1730 C.2       1 GDP         0.3268
     29 H1         20.2583   34.2784   31.4756 H         1 GDP         0.0648
     30 H2         20.7940   35.4139   32.7603 H         1 GDP         0.0648
     31 H3         21.5402   33.1426   33.2283 H         1 GDP         0.0651
     32 H4         23.7841   35.0833   32.4375 H         1 GDP         0.0648
     33 H5         22.4196   35.5713   34.2584 H         1 GDP         0.2100
     34 H6         25.2587   33.3020   33.1335 H         1 GDP         0.0677
     35 H7         24.3605   31.4188   34.1388 H         1 GDP         0.2101
     36 H8         23.8257   31.3154   31.8692 H         1 GDP         0.1021
     37 H9         24.0903   34.8576   30.2578 H         1 GDP         0.1823
     38 H10        28.3180   30.2941   28.2718 H         1 GDP         0.1819
     39 H11        26.8114   28.3188   30.7206 H         1 GDP         0.1774
     40 H12        28.0387   28.3958   29.4281 H         1 GDP         0.1774
     41 H13        25.4482   30.1667   31.1693 H         1 GDP         0.2519
@<TRIPOS>BOND
     1    1    2 ar 
     2    1    3 ar 
     3    1    4 ar 
     4    1    5 1  
     5    5    6 1  
     6    6    7 ar 
     7    6    8 ar 
     8    6    9 1  
     9    9   10 1  
    10   10   11 1  
    11   11   12 1  
    12   11   13 1  
    13   12   17 1  
    14   13   14 1  
    15   13   15 1  
    16   15   16 1  
    17   15   17 1  
    18   17   18 1  
    19   18   19 1  
    20   18   28 1  
    21   19   20 2  
    22   20   21 1  
    23   21   22 1  
    24   21   28 2  
    25   22   23 2  
    26   22   24 am 
    27   24   25 ar 
    28   25   26 ar 
    29   25   27 ar 
    30   27   28 1  
    31   10   29 1  
    32   10   30 1  
    33   11   31 1  
    34   13   32 1  
    35   14   33 1  
    36   15   34 1  
    37   16   35 1  
    38   17   36 1  
    39   19   37 1  
    40   24   38 1  
    41   26   39 1  
    42   26   40 1  
    43   27   41 1  
@<TRIPOS>SUBSTRUCTURE
     1 GDP         1

