### 
### Created by X-TOOL on Fri Nov 18 15:45:48 2016
### 

@<TRIPOS>MOLECULE
3fjg_ligand
   15    14     1     0     0
SMALL
GAST_HUCK


@<TRIPOS>ATOM
      1 C1         -9.6890    8.6110   12.9780 C.2       1 MOL         0.0659
      2 O1        -10.7370    8.0590   13.3780 O.co2     1 MOL        -0.5663
      3 O2         -9.5990    9.1720   11.8630 O.co2     1 MOL        -0.5663
      4 C2         -8.4870    8.5990   13.8780 C.3       1 MOL         0.1348
      5 O3         -7.6090    9.6730   13.5240 O.3       1 MOL        -0.3751
      6 C3         -7.7400    7.2820   13.7220 C.3       1 MOL         0.1159
      7 O1P        -6.7330    7.2120   14.7300 O.3       1 MOL        -0.2718
      8 P          -5.3330    6.4580   14.4690 P.3       1 MOL         0.2009
      9 O2P        -4.5940    6.6590   15.7680 O.co2     1 MOL        -0.5537
     10 O3P        -5.7250    5.0280   14.1930 O.co2     1 MOL        -0.5537
     11 O4P        -4.7350    7.1750   13.2830 O.co2     1 MOL        -0.5537
     12 H1         -8.8114    8.7169   14.9224 H         1 MOL         0.0790
     13 H2         -6.8503    9.6618   14.0955 H         1 MOL         0.2125
     14 H3         -7.2732    7.2355   12.7271 H         1 MOL         0.0657
     15 H4         -8.4405    6.4418   13.8380 H         1 MOL         0.0657
@<TRIPOS>BOND
     1    1    2 ar 
     2    1    3 ar 
     3    1    4 1  
     4    4    5 1  
     5    4    6 1  
     6    6    7 1  
     7    7    8 1  
     8    8    9 ar 
     9    8   10 ar 
    10    8   11 ar 
    11    4   12 1  
    12    5   13 1  
    13    6   14 1  
    14    6   15 1  
@<TRIPOS>SUBSTRUCTURE
     1 MOL         1

