### 
### Created by X-TOOL on Fri Nov 18 17:53:21 2016
### 

@<TRIPOS>MOLECULE
4nvp_ligand
   34    37     1     0     0
SMALL
GAST_HUCK


@<TRIPOS>ATOM
      1 O2P         3.7850   23.2470   15.3670 O.co2     1 MOL        -0.6177
      2 P           4.2520   21.8200   15.4660 P.3       1 MOL         0.2557
      3 O1P         5.0180   21.3400   16.6610 O.co2     1 MOL        -0.6177
      4 O3'         3.0030   20.8260   15.1970 O.3       1 MOL        -0.2453
      5 C3'         3.4550   19.4980   15.1010 C.3       1 MOL         0.1539
      6 C4'         4.4210   19.3640   13.9480 C.3       1 MOL         0.1242
      7 C5'         5.6810   20.1920   14.0080 C.3       1 MOL         0.1128
      8 O5'         5.2200   21.5280   14.1900 O.3       1 MOL        -0.2514
      9 C2'         2.4360   18.4390   14.7600 C.3       1 MOL         0.1434
     10 O2'         1.4790   18.9480   13.8160 O.3       1 MOL        -0.3832
     11 C1'         3.3230   17.3880   14.1300 C.3       1 MOL         0.1963
     12 O4'         4.6270   17.9590   14.0030 O.3       1 MOL        -0.3364
     13 N9          3.4120   16.1800   14.9550 N.pl3     1 MOL        -0.2236
     14 C4          2.8140   15.0460   14.6490 C.ar      1 MOL         0.1399
     15 C5          3.1590   14.0930   15.7000 C.ar      1 MOL         0.0433
     16 C7          3.9900   14.7140   16.5500 C.2       1 MOL        -0.0543
     17 C8          4.1360   15.9890   16.0850 C.2       1 MOL         0.0302
     18 N3          2.0330   14.6630   13.6320 N.ar      1 MOL        -0.2771
     19 C2          1.5070   13.4200   13.5920 C.ar      1 MOL         0.0500
     20 N1          1.7650   12.4710   14.5130 N.ar      1 MOL        -0.2733
     21 C6          2.5560   12.7310   15.5810 C.ar      1 MOL         0.1162
     22 N6          2.8250   11.7690   16.5200 N.pl3     1 MOL        -0.3157
     23 H           3.9422   19.2409   16.0531 H         1 MOL         0.0712
     24 H           3.9142   19.6340   13.0098 H         1 MOL         0.0655
     25 H           6.2511   20.1014   13.0717 H         1 MOL         0.0647
     26 H           6.3119   19.8797   14.8532 H         1 MOL         0.0647
     27 H           1.9187   18.0588   15.6532 H         1 MOL         0.0680
     28 H           1.0325   19.6974   14.1923 H         1 MOL         0.2101
     29 H           2.9285   17.1202   13.1387 H         1 MOL         0.0991
     30 H           4.4562   14.2857   17.4361 H         1 MOL         0.0311
     31 H           4.7523   16.7516   16.5589 H         1 MOL         0.0924
     32 H           0.8405   13.1720   12.7739 H         1 MOL         0.0975
     33 H           2.4061   10.8321   16.4321 H         1 MOL         0.1826
     34 H           3.4460   11.9831   17.3134 H         1 MOL         0.1826
@<TRIPOS>BOND
     1    1    2 ar 
     2    2    3 ar 
     3    2    4 1  
     4    2    8 1  
     5    4    5 1  
     6    5    6 1  
     7    5    9 1  
     8    6    7 1  
     9    6   12 1  
    10    7    8 1  
    11    9   10 1  
    12    9   11 1  
    13   11   12 1  
    14   11   13 1  
    15   13   14 1  
    16   13   17 1  
    17   14   15 ar 
    18   14   18 ar 
    19   15   16 1  
    20   15   21 ar 
    21   16   17 2  
    22   18   19 ar 
    23   19   20 ar 
    24   20   21 ar 
    25   21   22 1  
    26    5   23 1  
    27    6   24 1  
    28    7   25 1  
    29    7   26 1  
    30    9   27 1  
    31   10   28 1  
    32   11   29 1  
    33   16   30 1  
    34   17   31 1  
    35   19   32 1  
    36   22   33 1  
    37   22   34 1  
@<TRIPOS>SUBSTRUCTURE
     1 MOL         1

