### 
### Created by X-TOOL on Fri Nov 18 15:13:08 2016
### 

@<TRIPOS>MOLECULE
2zcs_ligand
   40    41     1     0     0
SMALL
GAST_HUCK


@<TRIPOS>ATOM
      1 CAJ        57.9210   19.1690   54.4000 C.ar      1 B70        -0.0557
      2 CAH        58.1900   20.5080   54.6620 C.ar      1 B70        -0.0622
      3 CAG        57.9480   21.4740   53.6910 C.ar      1 B70        -0.0627
      4 CAI        57.4420   21.0900   52.4550 C.ar      1 B70        -0.0622
      5 CAK        57.1740   19.7500   52.1930 C.ar      1 B70        -0.0557
      6 CAT        57.4050   18.7850   53.1670 C.ar      1 B70        -0.0221
      7 CAU        57.0680   17.4590   52.9220 C.ar      1 B70        -0.0242
      8 CAO        56.2100   17.1510   51.8720 C.ar      1 B70        -0.0600
      9 CAM        55.8650   15.8290   51.6100 C.ar      1 B70        -0.0589
     10 CAN        57.5740   16.4360   53.7150 C.ar      1 B70        -0.0600
     11 CAL        57.2300   15.1140   53.4510 C.ar      1 B70        -0.0589
     12 CAS        56.3770   14.8050   52.3960 C.ar      1 B70        -0.0420
     13 CAQ        56.0300   13.3500   52.0710 C.3       1 B70        -0.0186
     14 CAP        57.2910   12.5210   51.8070 C.3       1 B70        -0.0401
     15 CAR        56.9530   11.0840   51.4000 C.3       1 B70        -0.0165
     16 CAV        56.1980   10.3240   52.4940 C.3       1 B70         0.1121
     17 PAW        57.2180   10.1690   54.0140 P.3       1 B70         0.0795
     18 OAB        57.0280    8.6740   54.5820 O.co2     1 B70        -0.5610
     19 OAC        58.7460   10.2620   53.5160 O.co2     1 B70        -0.5610
     20 OAA        56.8650   11.1970   55.0190 O.co2     1 B70        -0.5610
     21 SAX        55.6570    8.6690   51.9240 S.o2      1 B70        -0.1731
     22 OAF        54.6280    8.8250   50.9410 O.co2     1 B70        -0.4830
     23 OAE        55.1130    7.8690   53.0720 O.co2     1 B70        -0.4830
     24 OAD        56.8190    7.9340   51.3240 O.co2     1 B70        -0.4830
     25 H1         58.1144   18.4211   55.1604 H         1 B70         0.0615
     26 H2         58.5897   20.7999   55.6264 H         1 B70         0.0615
     27 H3         58.1525   22.5184   53.8968 H         1 B70         0.0610
     28 H4         57.2554   21.8372   51.6921 H         1 B70         0.0615
     29 H5         56.7834   19.4571   51.2252 H         1 B70         0.0615
     30 H6         55.8076   17.9456   51.2541 H         1 B70         0.0609
     31 H7         55.1947   15.5976   50.7901 H         1 B70         0.0560
     32 H8         58.2375   16.6683   54.5402 H         1 B70         0.0609
     33 H9         57.6291   14.3196   54.0712 H         1 B70         0.0560
     34 H10        55.3916   13.3256   51.1756 H         1 B70         0.0429
     35 H11        55.4859   12.9131   52.9213 H         1 B70         0.0429
     36 H12        57.8998   12.4976   52.7229 H         1 B70         0.0289
     37 H13        57.8652   12.9946   50.9970 H         1 B70         0.0289
     38 H14        57.8897   10.5499   51.1825 H         1 B70         0.0298
     39 H15        56.3281   11.1119   50.4952 H         1 B70         0.0298
     40 H16        55.2986   10.9052   52.7453 H         1 B70         0.0695
@<TRIPOS>BOND
     1    1    2 ar 
     2    1    6 ar 
     3    2    3 ar 
     4    3    4 ar 
     5    4    5 ar 
     6    5    6 ar 
     7    6    7 1  
     8    7    8 ar 
     9    7   10 ar 
    10    8    9 ar 
    11    9   12 ar 
    12   10   11 ar 
    13   11   12 ar 
    14   12   13 1  
    15   13   14 1  
    16   14   15 1  
    17   15   16 1  
    18   16   17 1  
    19   16   21 1  
    20   17   18 ar 
    21   17   19 ar 
    22   17   20 ar 
    23   21   22 ar 
    24   21   23 ar 
    25   21   24 ar 
    26    1   25 1  
    27    2   26 1  
    28    3   27 1  
    29    4   28 1  
    30    5   29 1  
    31    8   30 1  
    32    9   31 1  
    33   10   32 1  
    34   11   33 1  
    35   13   34 1  
    36   13   35 1  
    37   14   36 1  
    38   14   37 1  
    39   15   38 1  
    40   15   39 1  
    41   16   40 1  
@<TRIPOS>SUBSTRUCTURE
     1 B70         1

