### 
### Created by X-TOOL on Fri Nov 18 14:36:51 2016
### 

@<TRIPOS>MOLECULE
2hmv_ligand
   39    41     1     0     0
SMALL
GAST_HUCK


@<TRIPOS>ATOM
      1 PB        113.2460   48.3660   16.9490 P.3       1 ADP         0.2069
      2 O1B       114.2380   48.9890   17.8610 O.co2     1 ADP        -0.5891
      3 O2B       112.3360   47.3160   17.7720 O.co2     1 ADP        -0.5891
      4 O3B       114.0200   47.5760   15.7780 O.co2     1 ADP        -0.5891
      5 PA        111.4900   50.3560   17.3990 P.3       1 ADP         0.3276
      6 O1A       111.1080   49.4900   18.5390 O.co2     1 ADP        -0.5556
      7 O2A       112.4170   51.5670   17.9370 O.co2     1 ADP        -0.5556
      8 O3A       112.3110   49.5150   16.2730 O.3       1 ADP        -0.1548
      9 N9        109.0940   55.2360   13.3070 N.pl3     1 ADP        -0.1919
     10 C8        109.6030   56.1370   14.2170 C.2       1 ADP         0.1123
     11 N7        109.0230   57.2920   14.0780 N.2       1 ADP        -0.2958
     12 C5        108.1080   57.2170   13.0820 C.ar      1 ADP         0.1045
     13 C6        107.1920   58.1260   12.4810 C.ar      1 ADP         0.1298
     14 N6        107.1020   59.4350   12.9280 N.pl3     1 ADP        -0.3152
     15 N1        106.4050   57.6840   11.4670 N.ar      1 ADP        -0.2698
     16 C2        106.4760   56.4190   11.0210 C.ar      1 ADP         0.0533
     17 N3        107.3280   55.5330   11.5580 N.ar      1 ADP        -0.2714
     18 C4        108.1490   55.8880   12.5710 C.ar      1 ADP         0.1613
     19 O5'       110.1160   50.9120   16.7290 O.3       1 ADP        -0.2436
     20 C5'       110.3940   52.1110   16.0130 C.3       1 ADP         0.1132
     21 C4'       109.9650   51.9800   14.5470 C.3       1 ADP         0.1189
     22 O4'       108.9600   52.9990   14.2190 O.3       1 ADP        -0.3364
     23 C3'       111.1700   52.2060   13.5970 C.3       1 ADP         0.1149
     24 O3'       111.1270   51.2820   12.5010 O.3       1 ADP        -0.3864
     25 C2'       110.9990   53.6640   13.1670 C.3       1 ADP         0.1385
     26 O2'       111.6250   53.9430   11.9170 O.3       1 ADP        -0.3836
     27 C1'       109.4770   53.8250   13.1300 C.3       1 ADP         0.2010
     28 H1        110.3793   55.9136   14.9473 H         1 ADP         0.1349
     29 H2        106.4361   60.0852   12.4867 H         1 ADP         0.1820
     30 H3        107.7010   59.7574   13.7014 H         1 ADP         0.1820
     31 H4        105.8299   56.1069   10.2084 H         1 ADP         0.0996
     32 H5        111.4741   52.3149   16.0560 H         1 ADP         0.0648
     33 H6        109.8449   52.9438   16.4766 H         1 ADP         0.0648
     34 H7        109.5463   50.9762   14.3829 H         1 ADP         0.0651
     35 H8        112.1215   52.0759   14.1334 H         1 ADP         0.0648
     36 H9        110.3215   51.4080   12.0134 H         1 ADP         0.2100
     37 H10       111.4309   54.3360   13.9232 H         1 ADP         0.0676
     38 H11       111.2434   53.3926   11.2432 H         1 ADP         0.2101
     39 H12       109.0841   53.4658   12.1674 H         1 ADP         0.0996
@<TRIPOS>BOND
     1    1    2 ar 
     2    1    3 ar 
     3    1    4 ar 
     4    8    1 1  
     5    5    6 ar 
     6    5    7 ar 
     7    5    8 1  
     8   19    5 1  
     9    9   10 1  
    10    9   18 1  
    11   27    9 1  
    12   10   11 2  
    13   12   11 1  
    14   12   13 ar 
    15   18   12 ar 
    16   13   14 1  
    17   13   15 ar 
    18   16   15 ar 
    19   17   16 ar 
    20   18   17 ar 
    21   20   19 1  
    22   21   20 1  
    23   22   21 1  
    24   21   23 1  
    25   22   27 1  
    26   23   24 1  
    27   23   25 1  
    28   25   26 1  
    29   25   27 1  
    30   10   28 1  
    31   14   29 1  
    32   14   30 1  
    33   16   31 1  
    34   20   32 1  
    35   20   33 1  
    36   21   34 1  
    37   23   35 1  
    38   24   36 1  
    39   25   37 1  
    40   26   38 1  
    41   27   39 1  
@<TRIPOS>SUBSTRUCTURE
     1 ADP         1

