### 
### Created by X-TOOL on Fri Nov 18 16:04:25 2016
### 

@<TRIPOS>MOLECULE
3lq2_ligand
   42    43     1     0     0
SMALL
GAST_HUCK


@<TRIPOS>ATOM
      1 N1'        24.3550  -59.6140    1.5870 N.ar      1 TDP        -0.2938
      2 C2'        24.1320  -58.7230    0.5550 C.ar      1 TDP         0.0758
      3 C2A        24.2420  -57.2720    0.8740 C.3       1 TDP        -0.0029
      4 N3'        23.8250  -59.1140   -0.6860 N.ar      1 TDP        -0.2610
      5 C4'        23.7250  -60.4800   -0.9610 C.ar      1 TDP         0.1223
      6 N4'        23.4320  -60.8050   -2.2050 N.pl3     1 TDP        -0.3187
      7 C5'        23.9560  -61.4690    0.1180 C.ar      1 TDP         0.0328
      8 C6'        24.2660  -60.9720    1.3620 C.ar      1 TDP         0.0074
      9 C35        23.8830  -62.9680   -0.0770 C.3       1 TDP         0.0562
     10 N3         22.4710  -63.5100   -0.0770 N.2       1 TDP        -0.2745
     11 C2         21.7440  -63.6370   -1.1720 C.2       1 TDP         0.1352
     12 S1         20.2410  -64.2950   -0.8810 S.3       1 TDP         0.1156
     13 C5         20.5630  -64.4230    0.8080 C.2       1 TDP         0.1730
     14 C4         21.8180  -63.9540    1.0950 C.2       1 TDP         0.1309
     15 C4A        22.4860  -63.8830    2.4390 C.3       1 TDP         0.0228
     16 C5A        19.5490  -64.9870    1.7590 C.3       1 TDP         0.0829
     17 C5B        18.1780  -65.1000    1.1420 C.3       1 TDP         0.1135
     18 O5G        17.1940  -64.8800    2.1940 O.3       1 TDP        -0.2401
     19 P1         15.9390  -63.8730    2.0090 P.3       1 TDP         0.3279
     20 O11        15.2310  -64.3730    0.6470 O.3       1 TDP        -0.1548
     21 O12        15.0010  -64.1030    3.1330 O.co2     1 TDP        -0.5556
     22 O13        16.4580  -62.4920    1.7820 O.co2     1 TDP        -0.5556
     23 P2         14.6880  -65.7750    0.0690 P.3       1 TDP         0.2069
     24 O21        13.2930  -65.4720   -0.5610 O.co2     1 TDP        -0.5891
     25 O22        15.6240  -66.1910   -1.0090 O.co2     1 TDP        -0.5891
     26 O23        14.5090  -66.7050    1.2200 O.co2     1 TDP        -0.5891
     27 H1         24.4999  -57.1487    1.9362 H         1 TDP         0.0449
     28 H2         23.2806  -56.7779    0.6704 H         1 TDP         0.0449
     29 H3         25.0268  -56.8181    0.2511 H         1 TDP         0.0449
     30 H4         23.3442  -61.7961   -2.4713 H         1 TDP         0.1789
     31 H5         23.2910  -60.0678   -2.9103 H         1 TDP         0.1789
     32 H6         24.4437  -61.6599    2.1808 H         1 TDP         0.0791
     33 H7         24.4415  -63.4524    0.7375 H         1 TDP         0.0563
     34 H8         24.3510  -63.2166   -1.0409 H         1 TDP         0.0563
     35 H9         22.0904  -63.3426   -2.1616 H         1 TDP         0.1655
     36 H10        21.8055  -64.2775    3.2079 H         1 TDP         0.0599
     37 H11        22.7336  -62.8366    2.6706 H         1 TDP         0.0599
     38 H12        23.4078  -64.4830    2.4225 H         1 TDP         0.0599
     39 H13        19.4866  -64.3296    2.6387 H         1 TDP         0.0773
     40 H14        19.8783  -65.9887    2.0724 H         1 TDP         0.0773
     41 H15        18.0444  -66.1023    0.7090 H         1 TDP         0.0687
     42 H16        18.0589  -64.3415    0.3543 H         1 TDP         0.0687
@<TRIPOS>BOND
     1    1    2 ar 
     2    1    8 ar 
     3    2    3 1  
     4    2    4 ar 
     5    4    5 ar 
     6    5    6 1  
     7    5    7 ar 
     8    7    8 ar 
     9    7    9 1  
    10    9   10 1  
    11   10   11 2  
    12   10   14 1  
    13   11   12 1  
    14   12   13 1  
    15   13   14 2  
    16   13   16 1  
    17   14   15 1  
    18   16   17 1  
    19   17   18 1  
    20   18   19 1  
    21   19   20 1  
    22   19   21 ar 
    23   19   22 ar 
    24   20   23 1  
    25   23   24 ar 
    26   23   25 ar 
    27   23   26 ar 
    28    3   27 1  
    29    3   28 1  
    30    3   29 1  
    31    6   30 1  
    32    6   31 1  
    33    8   32 1  
    34    9   33 1  
    35    9   34 1  
    36   11   35 1  
    37   15   36 1  
    38   15   37 1  
    39   15   38 1  
    40   16   39 1  
    41   16   40 1  
    42   17   41 1  
    43   17   42 1  
@<TRIPOS>SUBSTRUCTURE
     1 TDP         1

