### 
### Created by X-TOOL on Fri Nov 18 12:59:32 2016
### 

@<TRIPOS>MOLECULE
1jlr_ligand
   44    46     1     0     0
SMALL
GAST_HUCK


@<TRIPOS>ATOM
      1 PG        -20.5370   82.4850   57.7210 P.3       1 GTP         0.1879
      2 O1G       -19.8500   81.3500   58.3870 O.co2     1 GTP        -0.6091
      3 O2G       -22.0070   82.1080   57.9290 O.co2     1 GTP        -0.6091
      4 O3G       -20.1240   82.2630   56.3110 O.co2     1 GTP        -0.6091
      5 O3B       -19.9240   83.8310   58.2140 O.3       1 GTP        -0.1546
      6 PB        -19.5900   85.0140   57.2890 P.3       1 GTP         0.3553
      7 O1B       -18.5150   84.7870   56.3040 O.co2     1 GTP        -0.5652
      8 O2B       -20.9390   85.3030   56.8080 O.co2     1 GTP        -0.5652
      9 O3A       -19.1400   86.1690   58.2870 O.3       1 GTP        -0.1171
     10 PA        -17.5900   86.7080   58.3630 P.3       1 GTP         0.3266
     11 O1A       -16.7680   85.5620   58.8560 O.co2     1 GTP        -0.5692
     12 O2A       -17.2270   87.3220   57.0840 O.co2     1 GTP        -0.5692
     13 O5        -17.7520   87.7330   59.4090 O.3       1 GTP        -0.2441
     14 C5        -16.7300   88.1070   60.3420 C.3       1 GTP         0.1131
     15 C4        -17.0620   87.5370   61.7080 C.3       1 GTP         0.1189
     16 O4        -15.8720   87.3050   62.5180 O.3       1 GTP        -0.3363
     17 C3        -18.0350   88.3680   62.5480 C.3       1 GTP         0.1150
     18 O3        -19.2880   87.6910   62.6580 O.3       1 GTP        -0.3864
     19 C2        -17.3250   88.5990   63.9040 C.3       1 GTP         0.1387
     20 O2        -18.0750   88.1240   65.0070 O.3       1 GTP        -0.3836
     21 C1        -15.9890   87.8790   63.8140 C.3       1 GTP         0.1992
     22 N9        -14.8110   88.7540   64.0320 N.pl3     1 GTP        -0.2101
     23 C8        -13.7060   88.5690   64.8210 C.2       1 GTP         0.0957
     24 N7        -12.8470   89.5320   64.7970 N.2       1 GTP        -0.3235
     25 C5        -13.3650   90.4420   63.9540 C.2       1 GTP         0.0926
     26 C6        -12.8700   91.7260   63.5270 C.2       1 GTP         0.2135
     27 O6        -11.7900   92.2640   63.8890 O.2       1 GTP        -0.4091
     28 N1        -13.7570   92.4090   62.5880 N.am      1 GTP        -0.1839
     29 C2        -14.9590   91.8870   62.1400 C.2       1 GTP         0.2340
     30 N2        -15.6520   92.6330   61.2830 N.pl3     1 GTP        -0.2807
     31 N3        -15.4330   90.6980   62.5270 N.2       1 GTP        -0.2765
     32 C4        -14.5980   90.0070   63.4440 C.2       1 GTP         0.1159
     33 H1        -16.6746   89.2037   60.4056 H         1 GTP         0.0648
     34 H2        -15.7614   87.7099   60.0042 H         1 GTP         0.0648
     35 H3        -17.5399   86.5630   61.5266 H         1 GTP         0.0651
     36 H4        -18.2106   89.3401   62.0642 H         1 GTP         0.0648
     37 H5        -19.1556   86.8479   63.0754 H         1 GTP         0.2100
     38 H6        -17.1541   89.6768   64.0420 H         1 GTP         0.0676
     39 H7        -18.2201   87.1900   64.9112 H         1 GTP         0.2101
     40 H8        -15.9747   87.0822   64.5722 H         1 GTP         0.0998
     41 H9        -13.5630   87.6740   65.4247 H         1 GTP         0.1179
     42 H10       -13.4794   93.3076   62.2483 H         1 GTP         0.2515
     43 H11       -16.5532   92.2942   60.9171 H         1 GTP         0.1897
     44 H12       -15.2871   93.5492   60.9857 H         1 GTP         0.1897
@<TRIPOS>BOND
     1    1    2 ar 
     2    1    3 ar 
     3    1    4 ar 
     4    1    5 1  
     5    5    6 1  
     6    6    7 ar 
     7    6    8 ar 
     8    6    9 1  
     9    9   10 1  
    10   10   11 ar 
    11   10   12 ar 
    12   10   13 1  
    13   13   14 1  
    14   14   15 1  
    15   15   16 1  
    16   15   17 1  
    17   16   21 1  
    18   17   18 1  
    19   17   19 1  
    20   19   20 1  
    21   19   21 1  
    22   21   22 1  
    23   22   23 1  
    24   22   32 1  
    25   23   24 2  
    26   24   25 1  
    27   25   26 1  
    28   25   32 2  
    29   26   27 2  
    30   26   28 am 
    31   28   29 am 
    32   29   30 1  
    33   29   31 2  
    34   31   32 1  
    35   14   33 1  
    36   14   34 1  
    37   15   35 1  
    38   17   36 1  
    39   18   37 1  
    40   19   38 1  
    41   20   39 1  
    42   21   40 1  
    43   23   41 1  
    44   28   42 1  
    45   30   43 1  
    46   30   44 1  
@<TRIPOS>SUBSTRUCTURE
     1 GTP         1

