### 
### Created by X-TOOL on Fri Nov 18 13:08:34 2016
### 

@<TRIPOS>MOLECULE
1koj_ligand
   24    23     1     0     0
SMALL
GAST_HUCK


@<TRIPOS>ATOM
      1 C2         15.2540    9.3860   30.0240 C.3       1 PAN         0.1860
      2 C3         16.7450    8.9110   29.8640 C.3       1 PAN         0.1272
      3 C4         17.2440    8.1700   31.1500 C.3       1 PAN         0.1133
      4 C5         18.7240    7.7380   30.8810 C.3       1 PAN         0.1069
      5 O2         14.4710    8.2120   30.3250 O.3       1 PAN        -0.3680
      6 O3         16.8370    7.9320   28.8480 O.3       1 PAN        -0.3841
      7 O4         17.1740    9.1450   32.2050 O.3       1 PAN        -0.3864
      8 O5         19.4430    9.0160   30.5920 O.3       1 PAN        -0.2734
      9 P          21.0030    8.6560   30.1980 P.3       1 PAN         0.2008
     10 O1P        21.6880    7.8500   31.3090 O.co2     1 PAN        -0.5537
     11 O2P        21.0310    7.7760   28.9630 O.co2     1 PAN        -0.5537
     12 O3P        21.6590   10.0150   29.9210 O.co2     1 PAN        -0.5537
     13 C1         15.0160   10.1480   28.6760 C.2       1 PAN         0.3183
     14 O1         15.5090   11.1450   28.1610 O.2       1 PAN        -0.3252
     15 N          14.0610    9.5040   28.0320 N.2       1 PAN         0.0378
     16 ON1        13.5610    9.9260   26.7310 O.2       1 PAN        -0.1732
     17 H1         15.1411   10.0932   30.8589 H         1 PAN         0.0875
     18 H2         17.3858    9.7761   29.6380 H         1 PAN         0.0673
     19 H3         16.6212    7.2938   31.3833 H         1 PAN         0.0648
     20 H4         18.7793    7.0577   30.0184 H         1 PAN         0.0639
     21 H5         19.1512    7.2436   31.7659 H         1 PAN         0.0639
     22 H6         13.5500    8.4439   30.3463 H         1 PAN         0.2135
     23 H7         17.7407    7.6525   28.7600 H         1 PAN         0.2102
     24 H8         17.4669    8.7513   33.0184 H         1 PAN         0.2100
@<TRIPOS>BOND
     1    1   13 1  
     2    1    5 1  
     3    1    2 1  
     4    2    6 1  
     5    2    3 1  
     6    3    7 1  
     7    3    4 1  
     8    4    8 1  
     9    8    9 1  
    10    9   12 ar 
    11    9   11 ar 
    12    9   10 ar 
    13   13   15 1  
    14   13   14 2  
    15   15   16 2  
    16    1   17 1  
    17    2   18 1  
    18    3   19 1  
    19    4   20 1  
    20    4   21 1  
    21    5   22 1  
    22    6   23 1  
    23    7   24 1  
@<TRIPOS>SUBSTRUCTURE
     1 PAN         1

