### 
### Created by X-TOOL on Fri Nov 18 17:18:30 2016
### 

@<TRIPOS>MOLECULE
4eu0_ligand
   68    74     1     0     0
SMALL
GAST_HUCK


@<TRIPOS>ATOM
      1 P1         17.2080    3.3670   13.6760 P.3       1 C2E         0.2557
      2 O2P        18.5850    2.7980   13.9410 O.co2     1 C2E        -0.6177
      3 O1P        16.7930    4.6390   14.3690 O.co2     1 C2E        -0.6177
      4 O5'        16.1080    2.2500   13.9770 O.3       1 C2E        -0.2514
      5 C5'        16.2350    0.9100   13.5050 C.3       1 C2E         0.1128
      6 C4'        14.9400    0.1330   13.7180 C.3       1 C2E         0.1242
      7 O4'        14.7250   -0.0990   15.1200 O.3       1 C2E        -0.3359
      8 C3'        13.6760    0.8240   13.2180 C.3       1 C2E         0.1540
      9 O3'        13.3520    0.5600   11.8480 O.3       1 C2E        -0.2453
     10 C2'        12.6190    0.2410   14.1200 C.3       1 C2E         0.1440
     11 O2'        12.2920   -1.0720   13.6540 O.3       1 C2E        -0.3832
     12 C1'        13.3490    0.0990   15.4380 C.3       1 C2E         0.1996
     13 N9         13.1940    1.3330   16.2600 N.pl3     1 C2E        -0.2101
     14 C8         14.1610    2.2180   16.5600 C.2       1 C2E         0.0957
     15 N7         13.6800    3.2230   17.3380 N.2       1 C2E        -0.3235
     16 C5         12.3780    2.9550   17.5440 C.2       1 C2E         0.0926
     17 C6         11.2690    3.6010   18.2620 C.2       1 C2E         0.2135
     18 O6         11.4860    4.7490   18.9390 O.2       1 C2E        -0.4091
     19 N1         10.0500    3.0160   18.2310 N.am      1 C2E        -0.1839
     20 C2          9.8000    1.8680   17.5440 C.2       1 C2E         0.2340
     21 N2          8.5440    1.3710   17.5670 N.pl3     1 C2E        -0.2807
     22 N3         10.7810    1.2200   16.8550 N.2       1 C2E        -0.2765
     23 C4         12.0530    1.7120   16.8240 C.2       1 C2E         0.1159
     24 P11        12.4960    1.6370   11.0100 P.3       1 C2E         0.2557
     25 O21        12.1790    1.0560    9.6410 O.co2     1 C2E        -0.6177
     26 O11        11.3610    2.2150   11.8300 O.co2     1 C2E        -0.6177
     27 O5A        13.5790    2.7950   10.7690 O.3       1 C2E        -0.2514
     28 C5A        14.8060    2.5130   10.0980 C.3       1 C2E         0.1128
     29 C4A        15.6720    3.7560   10.1340 C.3       1 C2E         0.1242
     30 O4A        14.9740    4.8680    9.5720 O.3       1 C2E        -0.3359
     31 C3A        15.9760    4.1940   11.5520 C.3       1 C2E         0.1540
     32 O3A        17.1110    3.5440   12.0840 O.3       1 C2E        -0.2453
     33 C2A        16.1970    5.6790   11.4310 C.3       1 C2E         0.1440
     34 O2A        17.5200    5.9490   10.9460 O.3       1 C2E        -0.3832
     35 C1A        15.1830    6.0390   10.3670 C.3       1 C2E         0.1996
     36 N91        13.9130    6.4780   11.0080 N.pl3     1 C2E        -0.2101
     37 C81        12.7590    5.7890   11.0850 C.2       1 C2E         0.0957
     38 N71        11.7990    6.5020   11.7290 N.2       1 C2E        -0.3235
     39 C51        12.3480    7.6810   12.0800 C.2       1 C2E         0.0926
     40 C61        11.9040    8.9110   12.7810 C.2       1 C2E         0.2135
     41 O61        10.6390    9.0340   13.2590 O.2       1 C2E        -0.4091
     42 N11        12.7970    9.9140   12.9380 N.am      1 C2E        -0.1839
     43 C21        14.0700    9.8260   12.4750 C.2       1 C2E         0.2340
     44 N21        14.9110   10.8730   12.6670 N.pl3     1 C2E        -0.2807
     45 N31        14.5370    8.7310   11.8200 N.2       1 C2E        -0.2765
     46 C41        13.7380    7.6560   11.6010 C.2       1 C2E         0.1159
     47 H1         17.0485    0.4110   14.0520 H         1 C2E         0.0647
     48 H2         16.4720    0.9274   12.4310 H         1 C2E         0.0647
     49 H3         15.0403   -0.8305   13.1968 H         1 C2E         0.0655
     50 H4         13.7590    1.9121   13.3561 H         1 C2E         0.0712
     51 H5         11.7258    0.8788   14.1936 H         1 C2E         0.0681
     52 H6         11.9639   -1.0184   12.7640 H         1 C2E         0.2102
     53 H7         12.9582   -0.7647   15.9959 H         1 C2E         0.0998
     54 H8         15.1938    2.1396   16.2237 H         1 C2E         0.1179
     55 H9          9.3002    3.4454   18.7344 H         1 C2E         0.2515
     56 H10         8.3239    0.5038   17.0567 H         1 C2E         0.1897
     57 H11         7.8065    1.8593   18.0948 H         1 C2E         0.1897
     58 H12        14.6019    2.2334    9.0539 H         1 C2E         0.0647
     59 H13        15.3240    1.6854   10.6047 H         1 C2E         0.0647
     60 H14        16.6044    3.5625    9.5835 H         1 C2E         0.0655
     61 H15        15.1149    3.9880   12.2047 H         1 C2E         0.0712
     62 H16        16.0167    6.2066   12.3792 H         1 C2E         0.0681
     63 H17        18.1576    5.5888   11.5512 H         1 C2E         0.2102
     64 H18        15.5714    6.8527    9.7369 H         1 C2E         0.0998
     65 H19        12.6138    4.7877   10.6823 H         1 C2E         0.1179
     66 H20        12.5104   10.7475   13.4104 H         1 C2E         0.2515
     67 H21        15.8806   10.8246   12.3228 H         1 C2E         0.1897
     68 H22        14.5800   11.7163   13.1570 H         1 C2E         0.1897
@<TRIPOS>BOND
     1    1    2 ar 
     2    1    3 ar 
     3    1    4 1  
     4    1   32 1  
     5    4    5 1  
     6    5    6 1  
     7    6    7 1  
     8    6    8 1  
     9    7   12 1  
    10    8    9 1  
    11    8   10 1  
    12    9   24 1  
    13   10   11 1  
    14   10   12 1  
    15   12   13 1  
    16   13   14 1  
    17   13   23 1  
    18   14   15 2  
    19   15   16 1  
    20   16   17 1  
    21   16   23 2  
    22   17   18 2  
    23   17   19 am 
    24   19   20 am 
    25   20   21 1  
    26   20   22 2  
    27   22   23 1  
    28   24   25 ar 
    29   24   26 ar 
    30   24   27 1  
    31   27   28 1  
    32   28   29 1  
    33   29   30 1  
    34   29   31 1  
    35   30   35 1  
    36   31   32 1  
    37   31   33 1  
    38   33   34 1  
    39   33   35 1  
    40   35   36 1  
    41   36   37 1  
    42   36   46 1  
    43   37   38 2  
    44   38   39 1  
    45   39   40 1  
    46   39   46 2  
    47   40   41 2  
    48   40   42 am 
    49   42   43 am 
    50   43   44 1  
    51   43   45 2  
    52   45   46 1  
    53    5   47 1  
    54    5   48 1  
    55    6   49 1  
    56    8   50 1  
    57   10   51 1  
    58   11   52 1  
    59   12   53 1  
    60   14   54 1  
    61   19   55 1  
    62   21   56 1  
    63   21   57 1  
    64   28   58 1  
    65   28   59 1  
    66   29   60 1  
    67   31   61 1  
    68   33   62 1  
    69   34   63 1  
    70   35   64 1  
    71   37   65 1  
    72   42   66 1  
    73   44   67 1  
    74   44   68 1  
@<TRIPOS>SUBSTRUCTURE
     1 C2E         1

