### 
### Created by X-TOOL on Wed Dec 13 14:17:59 2017
### 

@<TRIPOS>MOLECULE
5dus_ligand
   57    60     1     0     0
SMALL
GAST_HUCK


@<TRIPOS>ATOM
      1 N1          4.3270   19.0140   75.5980 N.ar      1 APR        -0.2698
      2 C2          3.9050   17.8750   74.9690 C.ar      1 APR         0.0533
      3 N3          2.9220   17.9240   73.9990 N.ar      1 APR        -0.2714
      4 C4          2.3700   19.1360   73.6720 C.ar      1 APR         0.1613
      5 C5          2.7940   20.2590   74.2950 C.ar      1 APR         0.1045
      6 C6          3.7760   20.2060   75.2720 C.ar      1 APR         0.1298
      7 N6          4.3130   21.3040   76.0010 N.pl3     1 APR        -0.3152
      8 N7          2.0980   21.3220   73.8020 N.2       1 APR        -0.2958
      9 C8          1.2420   20.8490   72.8580 C.2       1 APR         0.1123
     10 N9          1.3930   19.5020   72.7690 N.pl3     1 APR        -0.1919
     11 C1'         0.7910   18.5080   71.9830 C.3       1 APR         0.2010
     12 C2'        -0.2000   18.9770   71.2440 C.3       1 APR         0.1385
     13 O2'        -1.4770   18.9370   71.8910 O.3       1 APR        -0.3836
     14 C3'        -0.1980   18.0150   69.9220 C.3       1 APR         0.1149
     15 O3'        -0.8240   16.7620   70.2820 O.3       1 APR        -0.3864
     16 O4'         1.8830   18.1590   70.9110 O.3       1 APR        -0.3364
     17 C4'         1.1240   17.8160   69.6300 C.3       1 APR         0.1189
     18 C5'         1.6480   18.7340   68.4980 C.3       1 APR         0.1128
     19 O5'         0.9900   19.9810   68.7830 O.3       1 APR        -0.2476
     20 PA          1.2160   21.3420   68.0220 P.3       1 APR         0.2972
     21 O1A        -0.1730   21.9070   67.7300 O.co2     1 APR        -0.6127
     22 O2A         2.0490   22.2820   68.8810 O.co2     1 APR        -0.6127
     23 O3A         2.0020   21.0210   66.7130 O.3       1 APR        -0.1319
     24 PB          1.5860   20.7990   65.1800 P.3       1 APR         0.2972
     25 O1B         2.8270   20.2370   64.4860 O.co2     1 APR        -0.6127
     26 O2B         0.3050   19.9750   65.1030 O.co2     1 APR        -0.6127
     27 O5D         1.2600   22.2380   64.6300 O.3       1 APR        -0.2476
     28 C5D         2.3440   23.1190   64.2740 C.3       1 APR         0.1128
     29 O4D         1.2580   24.9650   65.5600 O.3       1 APR        -0.3403
     30 O1D         2.0340   26.1760   67.2700 O.3       1 APR        -0.3649
     31 C1D         1.8300   26.1140   65.8740 C.3       1 APR         0.1854
     32 O2D         3.7340   27.3310   65.0690 O.3       1 APR        -0.3841
     33 C2D         3.1900   26.0590   65.1660 C.3       1 APR         0.1339
     34 O3D         2.1720   26.5470   62.9770 O.3       1 APR        -0.3864
     35 C3D         2.7730   25.4650   63.8230 C.3       1 APR         0.1144
     36 C4D         1.8340   24.5400   64.1450 C.3       1 APR         0.1184
     37 H1          4.3473   16.9217   75.2348 H         1 APR         0.0996
     38 H2          3.9624   22.2571   75.8290 H         1 APR         0.1820
     39 H3          5.0522   21.1455   76.7006 H         1 APR         0.1820
     40 H4          0.5498   21.4503   72.2704 H         1 APR         0.1349
     41 H5          0.4770   17.6463   72.5903 H         1 APR         0.0996
     42 H6          0.0121   20.0182   70.9595 H         1 APR         0.0676
     43 H7         -1.6912   18.0380   72.1111 H         1 APR         0.2101
     44 H8         -0.7256   18.4833   69.0780 H         1 APR         0.0648
     45 H9         -1.7149   16.9253   70.5688 H         1 APR         0.2100
     46 H10         1.2878   16.7653   69.3487 H         1 APR         0.0651
     47 H11         1.3605   18.3494   67.5084 H         1 APR         0.0648
     48 H12         2.7417   18.8409   68.5463 H         1 APR         0.0648
     49 H13         2.7746   22.7978   63.3141 H         1 APR         0.0648
     50 H14         3.1178   23.0789   65.0548 H         1 APR         0.0648
     51 H15         2.5963   25.4590   67.5389 H         1 APR         0.2126
     52 H16         1.2299   26.9707   65.5335 H         1 APR         0.0935
     53 H17         4.5747   27.2820   64.6292 H         1 APR         0.2101
     54 H18         3.8990   25.4004   65.6890 H         1 APR         0.0671
     55 H19         1.4119   26.9074   63.4186 H         1 APR         0.2100
     56 H20         3.6255   25.0033   63.3033 H         1 APR         0.0648
     57 H21         1.0396   24.5608   63.3844 H         1 APR         0.0651
@<TRIPOS>BOND
     1    2    1 ar 
     2    6    1 ar 
     3    3    2 ar 
     4    4    3 ar 
     5    4    5 ar 
     6   10    4 1  
     7    5    6 ar 
     8    8    5 1  
     9    6    7 1  
    10    9    8 2  
    11   10    9 1  
    12   11   10 1  
    13   11   12 1  
    14   16   11 1  
    15   12   13 1  
    16   14   12 1  
    17   14   15 1  
    18   17   14 1  
    19   17   16 1  
    20   18   17 1  
    21   19   18 1  
    22   20   19 1  
    23   20   21 ar 
    24   20   22 ar 
    25   23   20 1  
    26   24   23 1  
    27   24   25 ar 
    28   24   26 ar 
    29   27   24 1  
    30   28   27 1  
    31   36   28 1  
    32   29   31 1  
    33   29   36 1  
    34   31   30 1  
    35   31   33 1  
    36   33   32 1  
    37   33   35 1  
    38   35   34 1  
    39   35   36 1  
    40    2   37 1  
    41    7   38 1  
    42    7   39 1  
    43    9   40 1  
    44   11   41 1  
    45   12   42 1  
    46   13   43 1  
    47   14   44 1  
    48   15   45 1  
    49   17   46 1  
    50   18   47 1  
    51   18   48 1  
    52   28   49 1  
    53   28   50 1  
    54   30   51 1  
    55   31   52 1  
    56   32   53 1  
    57   33   54 1  
    58   34   55 1  
    59   35   56 1  
    60   36   57 1  
@<TRIPOS>SUBSTRUCTURE
     1 APR         1

