### 
### Created by X-TOOL on Fri Nov 18 15:52:28 2016
### 

@<TRIPOS>MOLECULE
3fj7_ligand
   14    13     1     0     0
SMALL
GAST_HUCK


@<TRIPOS>ATOM
      1 C1        -31.8680    7.1470  -26.9730 C.2       1 PEQ         0.0682
      2 O1        -32.7460    7.9040  -26.4990 O.co2     1 PEQ        -0.5661
      3 O2'       -32.1170    6.2950  -27.8520 O.co2     1 PEQ        -0.5661
      4 C2        -30.4430    7.2450  -26.4940 C.3       1 PEQ         0.1382
      5 C3        -30.2450    8.3320  -25.4450 C.3       1 PEQ        -0.0221
      6 O2        -30.0080    5.9960  -25.9610 O.3       1 PEQ        -0.2593
      7 P         -28.4270    5.7000  -25.9010 P.3       1 PEQ         0.2036
      8 O1P       -27.9990    6.2120  -24.5470 O.co2     1 PEQ        -0.5536
      9 O2P       -27.8650    6.4850  -27.0640 O.co2     1 PEQ        -0.5536
     10 O3P       -28.3340    4.2030  -26.0710 O.co2     1 PEQ        -0.5536
     11 H1        -29.8139    7.4915  -27.3620 H         1 PEQ         0.0817
     12 H2        -29.1897    8.3550  -25.1356 H         1 PEQ         0.0276
     13 H3        -30.8786    8.1184  -24.5715 H         1 PEQ         0.0276
     14 H4        -30.5237    9.3073  -25.8705 H         1 PEQ         0.0276
@<TRIPOS>BOND
     1    1    2 ar 
     2    1    3 ar 
     3    1    4 1  
     4    4    5 1  
     5    4    6 1  
     6    6    7 1  
     7    7    8 ar 
     8    7    9 ar 
     9    7   10 ar 
    10    4   11 1  
    11    5   12 1  
    12    5   13 1  
    13    5   14 1  
@<TRIPOS>SUBSTRUCTURE
     1 PEQ         1

