### 
### Created by X-TOOL on Fri Nov 18 12:40:08 2016
### 

@<TRIPOS>MOLECULE
1fao_ligand
   36    36     1     0     0
SMALL
GAST_HUCK


@<TRIPOS>ATOM
      1 C1         25.9280    6.5440    8.2430 C.3       1 ITS         0.1463
      2 O1         26.7630    7.6030    7.7540 O.3       1 ITS        -0.2675
      3 C2         24.9410    7.0920    9.2600 C.3       1 ITS         0.1215
      4 O2         25.6410    7.6550   10.3600 O.3       1 ITS        -0.3858
      5 C3         24.0450    5.9750    9.7510 C.3       1 ITS         0.1509
      6 O3         23.0660    6.5010   10.6580 O.3       1 ITS        -0.2672
      7 C4         24.8450    4.8640   10.4260 C.3       1 ITS         0.1550
      8 O4         23.9780    3.7670   10.7620 O.3       1 ITS        -0.2669
      9 C5         26.0020    4.3490    9.5720 C.3       1 ITS         0.1509
     10 O5         26.8830    3.5660   10.3910 O.3       1 ITS        -0.2672
     11 C6         26.7960    5.4440    8.8480 C.3       1 ITS         0.1215
     12 O6         27.5830    4.8550    7.8210 O.3       1 ITS        -0.3858
     13 P1         26.3810    8.4170    6.3980 P.3       1 ITS         0.2013
     14 OP1        27.1890    9.7010    6.4810 O.co2     1 ITS        -0.5537
     15 OP2        24.8780    8.6280    6.4550 O.co2     1 ITS        -0.5537
     16 OP3        26.8040    7.5350    5.2420 O.co2     1 ITS        -0.5537
     17 P3         21.4830    6.3590   10.3300 P.3       1 ITS         0.2013
     18 O10        20.7630    7.0130   11.4960 O.co2     1 ITS        -0.5537
     19 O11        21.2520    7.0410    8.9930 O.co2     1 ITS        -0.5537
     20 O12        21.2280    4.8560   10.2690 O.co2     1 ITS        -0.5537
     21 P4         23.5020    3.4960   12.2940 P.3       1 ITS         0.2013
     22 OP4        24.2330    4.4920   13.1770 O.co2     1 ITS        -0.5537
     23 OP5        22.0040    3.7180   12.2810 O.co2     1 ITS        -0.5537
     24 OP6        23.8730    2.0540   12.6080 O.co2     1 ITS        -0.5537
     25 P5         27.6430    2.2530    9.8030 P.3       1 ITS         0.2013
     26 OP7        28.0640    1.4830   11.0420 O.co2     1 ITS        -0.5537
     27 OP8        26.6090    1.5200    8.9610 O.co2     1 ITS        -0.5537
     28 OP9        28.8090    2.7970    8.9930 O.co2     1 ITS        -0.5537
     29 H1         25.3621    6.1198    7.4005 H         1 ITS         0.0703
     30 H2         24.3257    7.8702    8.7849 H         1 ITS         0.0654
     31 H3         25.0172    8.0011   10.9873 H         1 ITS         0.2100
     32 H4         23.5235    5.5444    8.8834 H         1 ITS         0.0706
     33 H5         25.2675    5.2729   11.3557 H         1 ITS         0.0710
     34 H6         25.5737    3.6925    8.8002 H         1 ITS         0.0706
     35 H7         27.4677    5.9120    9.5827 H         1 ITS         0.0654
     36 H8         28.1841    4.2273    8.2048 H         1 ITS         0.2100
@<TRIPOS>BOND
     1    1   11 1  
     2    1    3 1  
     3    1    2 1  
     4    2   13 1  
     5   13   16 ar 
     6   13   15 ar 
     7   13   14 ar 
     8    3    5 1  
     9    3    4 1  
    10    5    7 1  
    11    5    6 1  
    12    6   17 1  
    13   17   20 ar 
    14   17   19 ar 
    15   17   18 ar 
    16    7    9 1  
    17    7    8 1  
    18    8   21 1  
    19   21   24 ar 
    20   21   23 ar 
    21   21   22 ar 
    22    9   11 1  
    23    9   10 1  
    24   10   25 1  
    25   25   28 ar 
    26   25   27 ar 
    27   25   26 ar 
    28   11   12 1  
    29    1   29 1  
    30    3   30 1  
    31    4   31 1  
    32    5   32 1  
    33    7   33 1  
    34    9   34 1  
    35   11   35 1  
    36   12   36 1  
@<TRIPOS>SUBSTRUCTURE
     1 ITS         1

