### 
### Created by X-TOOL on Fri Nov 18 15:38:10 2016
### 

@<TRIPOS>MOLECULE
3djo_ligand
   32    33     1     0     0
SMALL
GAST_HUCK


@<TRIPOS>ATOM
      1 O5'        29.5560   42.9480    8.5150 O.3       1 U2P        -0.3924
      2 C5'        29.9580   44.1320    7.8140 C.3       1 U2P         0.0730
      3 C4'        29.7720   43.9900    6.2870 C.3       1 U2P         0.1139
      4 O4'        30.8190   43.1020    5.7800 O.3       1 U2P        -0.3364
      5 C1'        30.2830   42.3440    4.6760 C.3       1 U2P         0.2106
      6 N1         30.2060   40.9060    5.0540 N.am      1 U2P        -0.1588
      7 C6         30.2830   40.4680    6.4010 C.2       1 U2P         0.0591
      8 C5         30.1960   39.1110    6.7030 C.2       1 U2P         0.0062
      9 C4         30.0460   38.1860    5.6650 C.2       1 U2P         0.1822
     10 O4         29.9740   36.9820    5.8920 O.2       1 U2P        -0.4124
     11 N3         29.9590   38.6210    4.3440 N.am      1 U2P        -0.1865
     12 C2         30.0550   39.9750    4.0280 C.2       1 U2P         0.3328
     13 O2         29.9900   40.3510    2.8550 O.2       1 U2P        -0.3815
     14 C2'        28.8880   42.8990    4.4080 C.3       1 U2P         0.1724
     15 O2'        29.0380   44.0040    3.5050 O.3       1 U2P        -0.2647
     16 P          27.8270   44.3730    2.5090 P.3       1 U2P         0.2015
     17 O1P        26.5810   44.6030    3.2610 O.co2     1 U2P        -0.5537
     18 O2P        28.3320   45.6690    1.6570 O.co2     1 U2P        -0.5537
     19 O3P        27.7220   43.1760    1.4520 O.co2     1 U2P        -0.5537
     20 C3'        28.4680   43.3410    5.8050 C.3       1 U2P         0.1192
     21 O3'        27.4020   44.2980    5.7440 O.3       1 U2P        -0.3860
     22 H1         28.6381   42.7750    8.3418 H         1 U2P         0.2095
     23 H2         31.0195   44.3274    8.0260 H         1 U2P         0.0584
     24 H3         29.3514   44.9783    8.1687 H         1 U2P         0.0584
     25 H4         29.8593   44.9902    5.8375 H         1 U2P         0.0647
     26 H5         30.9175   42.4599    3.7849 H         1 U2P         0.1001
     27 H6         30.4106   41.1951    7.2016 H         1 U2P         0.1178
     28 H7         30.2443   38.7737    7.7373 H         1 U2P         0.0258
     29 H8         29.8258   37.9523    3.6125 H         1 U2P         0.2259
     30 H9         28.1999   42.1481    3.9925 H         1 U2P         0.0732
     31 H10        28.1719   42.4905    6.4366 H         1 U2P         0.0651
     32 H11        27.1594   44.5567    6.6253 H         1 U2P         0.2100
@<TRIPOS>BOND
     1    1    2 1  
     2    2    3 1  
     3    3    4 1  
     4    3   20 1  
     5    4    5 1  
     6    5    6 1  
     7    5   14 1  
     8    6    7 1  
     9    6   12 am 
    10    7    8 2  
    11    8    9 1  
    12    9   10 2  
    13    9   11 am 
    14   11   12 am 
    15   12   13 2  
    16   14   15 1  
    17   14   20 1  
    18   15   16 1  
    19   16   17 ar 
    20   16   18 ar 
    21   16   19 ar 
    22   20   21 1  
    23    1   22 1  
    24    2   23 1  
    25    2   24 1  
    26    3   25 1  
    27    5   26 1  
    28    7   27 1  
    29    8   28 1  
    30   11   29 1  
    31   14   30 1  
    32   20   31 1  
    33   21   32 1  
@<TRIPOS>SUBSTRUCTURE
     1 U2P         1

