### 
### Created by X-TOOL on Fri Nov 18 17:49:24 2016
### 

@<TRIPOS>MOLECULE
4n6g_ligand
   20    21     1     0     0
SMALL
GAST_HUCK


@<TRIPOS>ATOM
      1 O          28.9930   29.2580   -5.5090 O.2       1 MOL        -0.3722
      2 C8         28.8210   28.8080   -4.3820 C.2       1 MOL         0.2417
      3 C3         28.6110   27.3760   -4.0900 C.ar      1 MOL         0.0641
      4 C2         28.6870   26.4280   -5.1130 C.ar      1 MOL        -0.0467
      5 C1         28.5160   25.0800   -4.8340 C.ar      1 MOL        -0.0623
      6 N          28.7820   29.6420   -3.2890 N.am      1 MOL        -0.1983
      7 C7         28.5580   29.2680   -1.9990 C.2       1 MOL         0.1260
      8 C6         28.3420   27.9340   -1.7020 C.3       1 MOL         0.0696
      9 C4         28.3640   26.9500   -2.7610 C.ar      1 MOL         0.0010
     10 C5         28.1770   25.5820   -2.5140 C.ar      1 MOL        -0.0506
     11 C          28.2550   24.6610   -3.5460 C.ar      1 MOL        -0.0633
     12 N1         28.5500   30.2420   -1.0730 N.2       1 MOL        -0.3955
     13 H          28.8807   26.7475   -6.1306 H         1 MOL         0.0653
     14 H          28.5879   24.3512   -5.6333 H         1 MOL         0.0577
     15 H          28.9325   30.6161   -3.4578 H         1 MOL         0.2444
     16 H          27.3516   27.8695   -1.2277 H         1 MOL         0.0728
     17 H          29.1155   27.6396   -0.9774 H         1 MOL         0.0728
     18 H          27.9694   25.2421   -1.5058 H         1 MOL         0.0576
     19 H          28.1103   23.6066   -3.3404 H         1 MOL         0.0637
     20 H          28.3884   30.0151   -0.1043 H         1 MOL         0.0524
@<TRIPOS>BOND
     1    1    2 2  
     2    2    3 1  
     3    2    6 am 
     4    3    4 ar 
     5    3    9 ar 
     6    4    5 ar 
     7    5   11 ar 
     8    6    7 1  
     9    7    8 1  
    10    7   12 2  
    11    8    9 1  
    12    9   10 ar 
    13   10   11 ar 
    14    4   13 1  
    15    5   14 1  
    16    6   15 1  
    17    8   16 1  
    18    8   17 1  
    19   10   18 1  
    20   11   19 1  
    21   12   20 1  
@<TRIPOS>SUBSTRUCTURE
     1 MOL         1

