### 
### Created by X-TOOL on Fri Nov 18 17:59:17 2016
### 

@<TRIPOS>MOLECULE
4u1b_ligand
   32    31     1     0     0
SMALL
GAST_HUCK


@<TRIPOS>ATOM
      1 O2         21.8140   -2.2070   12.1460 O.co2     1 Q08        -0.5585
      2 P          21.2330   -2.6550   10.8920 P.3       1 Q08         0.1105
      3 O          19.6990   -3.1120   10.8740 O.co2     1 Q08        -0.5585
      4 O1         21.3160   -1.2960   10.1010 O.co2     1 Q08        -0.5585
      5 C7         22.3080   -3.7340    9.8600 C.3       1 Q08         0.0470
      6 N          23.5800   -2.9230    9.4330 N.4       1 Q08         0.2330
      7 C3         22.2890   -5.1830   10.4800 C.3       1 Q08         0.0176
      8 C4         23.3920   -6.1540    9.9670 C.3       1 Q08        -0.0439
      9 C5         23.2830   -7.5250   10.5780 C.3       1 Q08        -0.0554
     10 C6         23.7390   -8.6790    9.7210 C.3       1 Q08        -0.0653
     11 C2         22.1020   -5.3680   12.0330 C.3       1 Q08        -0.0439
     12 C1         21.6950   -6.7470   12.6580 C.3       1 Q08        -0.0554
     13 C          20.8110   -6.8060   13.9430 C.3       1 Q08        -0.0653
     14 H1         21.7796   -3.8720    8.9052 H         1 Q08         0.1052
     15 H2         24.1759   -3.5063    8.8666 H         1 Q08         0.2011
     16 H3         24.0823   -2.6281   10.2557 H         1 Q08         0.2011
     17 H4         23.2997   -2.1133    8.9021 H         1 Q08         0.2011
     18 H5         21.3580   -5.5966   10.0651 H         1 Q08         0.0371
     19 H6         24.3769   -5.7333   10.2181 H         1 Q08         0.0270
     20 H7         23.3004   -6.2464    8.8747 H         1 Q08         0.0270
     21 H8         22.2266   -7.6947   10.8332 H         1 Q08         0.0263
     22 H9         23.8878   -7.5310   11.4968 H         1 Q08         0.0263
     23 H10        23.6104   -9.6205   10.2752 H         1 Q08         0.0230
     24 H11        24.8002   -8.5474    9.4632 H         1 Q08         0.0230
     25 H12        23.1390   -8.7110    8.7996 H         1 Q08         0.0230
     26 H13        21.3269   -4.6498   12.3384 H         1 Q08         0.0270
     27 H14        23.0611   -5.0908   12.4947 H         1 Q08         0.0270
     28 H15        22.6311   -7.2736   12.8954 H         1 Q08         0.0263
     29 H16        21.1518   -7.2988   11.8767 H         1 Q08         0.0263
     30 H17        20.6375   -7.8561   14.2208 H         1 Q08         0.0230
     31 H18        19.8466   -6.3144   13.7475 H         1 Q08         0.0230
     32 H19        21.3258   -6.2892   14.7663 H         1 Q08         0.0230
@<TRIPOS>BOND
     1    1    2 ar 
     2    2    3 ar 
     3    2    4 ar 
     4    2    5 1  
     5    5    6 1  
     6    5    7 1  
     7    7    8 1  
     8    7   11 1  
     9    8    9 1  
    10    9   10 1  
    11   11   12 1  
    12   12   13 1  
    13    5   14 1  
    14    6   15 1  
    15    6   16 1  
    16    6   17 1  
    17    7   18 1  
    18    8   19 1  
    19    8   20 1  
    20    9   21 1  
    21    9   22 1  
    22   10   23 1  
    23   10   24 1  
    24   10   25 1  
    25   11   26 1  
    26   11   27 1  
    27   12   28 1  
    28   12   29 1  
    29   13   30 1  
    30   13   31 1  
    31   13   32 1  
@<TRIPOS>SUBSTRUCTURE
     1 Q08         1

