### 
### Created by X-TOOL on Fri Nov 18 16:45:26 2016
### 

@<TRIPOS>MOLECULE
3rbu_ligand
   21    20     1     0     0
SMALL
GAST_HUCK


@<TRIPOS>ATOM
      1 O6        -37.4720   18.3070   39.8580 O.co2     1 G88        -0.5690
      2 C6        -36.6850   17.6860   39.0960 C.2       1 G88         0.0349
      3 O7        -36.6890   16.4160   39.0090 O.co2     1 G88        -0.5690
      4 C5        -35.8390   18.4320   38.3800 C.3       1 G88         0.0020
      5 C4        -35.9700   19.9870   38.4110 C.3       1 G88        -0.0257
      6 C2        -34.7070   20.6380   37.8050 C.3       1 G88         0.0282
      7 C3        -33.6330   20.5090   38.8410 C.2       1 G88         0.0393
      8 O5        -33.6840   21.2680   39.8520 O.co2     1 G88        -0.5687
      9 O4        -32.7150   19.6550   38.6640 O.co2     1 G88        -0.5687
     10 C1        -34.1740   20.1830   36.3760 C.3       1 G88         0.0339
     11 P1        -33.0120   21.5630   35.7480 P.3       1 G88         0.0597
     12 O2        -32.5450   22.3330   36.9730 O.co2     1 G88        -0.5622
     13 O3        -31.6630   21.0830   35.2560 O.co2     1 G88        -0.5622
     14 O1        -33.7770   22.6610   34.9530 O.co2     1 G88        -0.5622
     15 H1        -35.9494   18.1226   37.3302 H         1 G88         0.0432
     16 H2        -34.8245   18.1895   38.7291 H         1 G88         0.0432
     17 H3        -36.0878   20.3216   39.4522 H         1 G88         0.0304
     18 H4        -36.8514   20.2897   37.8266 H         1 G88         0.0304
     19 H5        -34.9422   21.7069   37.6946 H         1 G88         0.0481
     20 H6        -35.0174   20.0543   35.6816 H         1 G88         0.0472
     21 H7        -33.6225   19.2352   36.4627 H         1 G88         0.0472
@<TRIPOS>BOND
     1    1    2 ar 
     2    2    3 ar 
     3    2    4 1  
     4    4    5 1  
     5    5    6 1  
     6    6    7 1  
     7    6   10 1  
     8    7    8 ar 
     9    7    9 ar 
    10   10   11 1  
    11   11   12 ar 
    12   11   13 ar 
    13   11   14 ar 
    14    4   15 1  
    15    4   16 1  
    16    5   17 1  
    17    5   18 1  
    18    6   19 1  
    19   10   20 1  
    20   10   21 1  
@<TRIPOS>SUBSTRUCTURE
     1 G88         1

