### 
### Created by X-TOOL on Fri Nov 18 15:17:20 2016
### 

@<TRIPOS>MOLECULE
3dhv_ligand
   35    37     1     0     0
SMALL
GAST_HUCK


@<TRIPOS>ATOM
      1 P          19.2360   -9.3940    9.2620 P.3       1 AMP         0.2008
      2 O1P        18.3690   -8.6940    8.2930 O.co2     1 AMP        -0.5537
      3 O2P        18.6330  -10.8460    9.5710 O.co2     1 AMP        -0.5537
      4 O3P        20.6380   -9.5610    8.6740 O.co2     1 AMP        -0.5537
      5 O5'        19.3180   -8.5050   10.6420 O.3       1 AMP        -0.2734
      6 C5'        20.0990   -9.0070   11.8520 C.3       1 AMP         0.1072
      7 C4'        20.1580   -8.0340   12.7470 C.3       1 AMP         0.1182
      8 O4'        18.8380   -7.8730   13.3870 O.3       1 AMP        -0.3365
      9 C3'        21.1560   -8.4200   13.9030 C.3       1 AMP         0.1149
     10 O3'        22.4550   -8.0830   13.5700 O.3       1 AMP        -0.3864
     11 C2'        20.4760   -7.7620   15.1590 C.3       1 AMP         0.1385
     12 O2'        20.9560   -6.2920   15.2310 O.3       1 AMP        -0.3836
     13 C1'        18.9880   -7.7640   14.8200 C.3       1 AMP         0.2010
     14 N9         18.3170   -8.7560   15.4830 N.pl3     1 AMP        -0.1919
     15 C8         18.0290  -10.0620   15.0340 C.2       1 AMP         0.1123
     16 N7         17.3680  -10.7070   15.9540 N.2       1 AMP        -0.2958
     17 C5         17.1920   -9.8850   17.0200 C.ar      1 AMP         0.1045
     18 C6         16.5730  -10.0140   18.2680 C.ar      1 AMP         0.1298
     19 N6         15.9620  -11.1650   18.6400 N.pl3     1 AMP        -0.3152
     20 N1         16.5870   -8.9230   19.1520 N.ar      1 AMP        -0.2698
     21 C2         17.2130   -7.7030   18.7960 C.ar      1 AMP         0.0533
     22 N3         17.8210   -7.5360   17.5930 N.ar      1 AMP        -0.2714
     23 C4         17.7880   -8.6620   16.7270 C.ar      1 AMP         0.1613
     24 H1         21.1164   -9.2910   11.5452 H         1 AMP         0.0639
     25 H2         19.5898   -9.8800   12.2862 H         1 AMP         0.0639
     26 H3         20.4719   -7.0980   12.2618 H         1 AMP         0.0650
     27 H4         21.1499   -9.5102   14.0490 H         1 AMP         0.0648
     28 H5         23.0361   -8.3253   14.2814 H         1 AMP         0.2100
     29 H6         20.6937   -8.3065   16.0897 H         1 AMP         0.0676
     30 H7         20.5601   -5.8673   15.9829 H         1 AMP         0.2101
     31 H8         18.5603   -6.8020   15.1387 H         1 AMP         0.0996
     32 H9         18.3155  -10.4696   14.0656 H         1 AMP         0.1349
     33 H10        15.5134  -11.2344   19.5646 H         1 AMP         0.1820
     34 H11        15.9462  -11.9704   17.9981 H         1 AMP         0.1820
     35 H12        17.2066   -6.8809   19.5025 H         1 AMP         0.0996
@<TRIPOS>BOND
     1    1    2 ar 
     2    1    3 ar 
     3    1    4 ar 
     4    1    5 1  
     5    5    6 1  
     6    6    7 1  
     7    7    8 1  
     8    7    9 1  
     9    8   13 1  
    10    9   10 1  
    11    9   11 1  
    12   11   12 1  
    13   11   13 1  
    14   13   14 1  
    15   14   15 1  
    16   14   23 1  
    17   15   16 2  
    18   16   17 1  
    19   17   18 ar 
    20   17   23 ar 
    21   18   19 1  
    22   18   20 ar 
    23   20   21 ar 
    24   21   22 ar 
    25   22   23 ar 
    26    6   24 1  
    27    6   25 1  
    28    7   26 1  
    29    9   27 1  
    30   10   28 1  
    31   11   29 1  
    32   12   30 1  
    33   13   31 1  
    34   15   32 1  
    35   19   33 1  
    36   19   34 1  
    37   21   35 1  
@<TRIPOS>SUBSTRUCTURE
     1 AMP         1

