### 
### Created by X-TOOL on Fri Nov 18 15:27:08 2016
### 

@<TRIPOS>MOLECULE
2w8j_ligand
   34    34     1     0     0
SMALL
GAST_HUCK


@<TRIPOS>ATOM
      1 N           6.3160   15.9230   33.4680 N.2       1 PLS        -0.3213
      2 CA          5.1820   16.5490   34.1570 C.3       1 PLS         0.0920
      3 CB          4.2160   17.2670   33.2110 C.3       1 PLS         0.0690
      4 OG          4.8560   18.3710   32.5650 O.3       1 PLS        -0.3921
      5 C           4.4120   15.4700   34.9000 C.2       1 PLS         0.0515
      6 O           4.6930   14.2550   34.7730 O.co2     1 PLS        -0.5677
      7 OXT         3.5020   15.8120   35.6900 O.co2     1 PLS        -0.5677
      8 N1          9.7050   13.6330   30.4760 N.ar      1 PLS        -0.3082
      9 C2          9.7350   13.8670   31.7970 C.ar      1 PLS         0.0567
     10 C2A        10.9440   13.3940   32.5760 C.3       1 PLS        -0.0186
     11 C3          8.6740   14.5310   32.4040 C.ar      1 PLS         0.1344
     12 O3          8.7250   14.7530   33.7480 O.3       1 PLS        -0.3217
     13 C4          7.5730   14.9430   31.6420 C.ar      1 PLS         0.0603
     14 C4A         6.3960   15.6400   32.2360 C.2       1 PLS         0.0190
     15 C5          7.5860   14.6810   30.2720 C.ar      1 PLS         0.0196
     16 C6          8.6770   14.0280   29.7160 C.ar      1 PLS         0.0031
     17 C5A         6.4520   15.0800   29.3570 C.3       1 PLS         0.1176
     18 O4P         6.5740   16.4600   28.9970 O.3       1 PLS        -0.2621
     19 P           5.2770   17.4160   28.8250 P.3       1 PLS         0.2042
     20 O1P         4.7040   17.5740   30.2020 O.co2     1 PLS        -0.5536
     21 O2P         4.3870   16.6870   27.8560 O.co2     1 PLS        -0.5536
     22 O3P         5.8790   18.6900   28.3170 O.co2     1 PLS        -0.5536
     23 H1          5.5739   17.2819   34.8776 H         1 PLS         0.0619
     24 H2          3.3561   17.6375   33.7883 H         1 PLS         0.0587
     25 H3          3.8663   16.5569   32.4471 H         1 PLS         0.0587
     26 H4          5.5975   18.0556   32.0619 H         1 PLS         0.2096
     27 H5         10.8222   13.6568   33.6372 H         1 PLS         0.0386
     28 H6         11.8483   13.8789   32.1797 H         1 PLS         0.0386
     29 H7         11.0399   12.3027   32.4772 H         1 PLS         0.0386
     30 H8          7.9397   15.2121   34.0220 H         1 PLS         0.2533
     31 H9          5.5701   15.9175   31.5827 H         1 PLS         0.1084
     32 H10         8.6967   13.8349   28.6495 H         1 PLS         0.0658
     33 H11         5.4941   14.9221   29.8742 H         1 PLS         0.0800
     34 H12         6.4837   14.4624   28.4473 H         1 PLS         0.0800
@<TRIPOS>BOND
     1    1    2 1  
     2   14    1 2  
     3    2    3 1  
     4    2    5 1  
     5    3    4 1  
     6    5    6 ar 
     7    5    7 ar 
     8    9    8 ar 
     9    8   16 ar 
    10    9   10 1  
    11   11    9 ar 
    12   11   12 1  
    13   13   11 ar 
    14   13   14 1  
    15   13   15 ar 
    16   15   16 ar 
    17   15   17 1  
    18   17   18 1  
    19   18   19 1  
    20   19   20 ar 
    21   19   21 ar 
    22   19   22 ar 
    23    2   23 1  
    24    3   24 1  
    25    3   25 1  
    26    4   26 1  
    27   10   27 1  
    28   10   28 1  
    29   10   29 1  
    30   12   30 1  
    31   14   31 1  
    32   16   32 1  
    33   17   33 1  
    34   17   34 1  
@<TRIPOS>SUBSTRUCTURE
     1 PLS         1

