### 
### Created by X-TOOL on Fri Nov 18 16:54:06 2016
### 

@<TRIPOS>MOLECULE
4emf_ligand
   45    47     1     0     0
SMALL
GAST_HUCK


@<TRIPOS>ATOM
      1 PA         -6.0820  -21.3320  -21.6960 P.3       1 M7G         0.3276
      2 O1A        -7.3790  -22.0970  -21.9020 O.co2     1 M7G        -0.5556
      3 O2A        -5.7330  -20.2010  -22.5810 O.co2     1 M7G        -0.5556
      4 O3A        -4.8800  -22.4190  -21.6680 O.3       1 M7G        -0.1548
      5 O5'        -6.0280  -21.0190  -20.1080 O.3       1 M7G        -0.2436
      6 PB         -4.1330  -23.2600  -22.8240 P.3       1 M7G         0.2069
      7 O1B        -4.4320  -22.6630  -24.1840 O.co2     1 M7G        -0.5891
      8 O2B        -2.6890  -23.1200  -22.4910 O.co2     1 M7G        -0.5891
      9 O3B        -4.6720  -24.6590  -22.6530 O.co2     1 M7G        -0.5891
     10 C5'        -4.8520  -20.5280  -19.4610 C.3       1 M7G         0.1131
     11 C4'        -4.5140  -21.2830  -18.1860 C.3       1 M7G         0.1169
     12 O4'        -5.7480  -21.6040  -17.5590 O.3       1 M7G        -0.3529
     13 C3'        -3.8140  -22.6120  -18.4780 C.3       1 M7G         0.1129
     14 O3'        -3.1960  -23.1630  -17.2830 O.3       1 M7G        -0.3865
     15 C2'        -4.9950  -23.4680  -18.8290 C.3       1 M7G         0.1208
     16 O2'        -4.6930  -24.8110  -18.4820 O.3       1 M7G        -0.3857
     17 C1'        -6.0450  -22.9560  -17.8740 C.3       1 M7G         0.1656
     18 N9         -7.4150  -22.9460  -18.3650 N.2       1 M7G        -0.1577
     19 C8         -7.6890  -23.5620  -19.6610 C.2       1 M7G         0.2318
     20 N7         -9.1230  -23.2650  -19.6190 N.pl3     1 M7G        -0.0547
     21 CM7        -9.8190  -23.7670  -20.8400 C.3       1 M7G         0.0996
     22 C5         -9.5530  -22.6140  -18.5180 C.2       1 M7G         0.4523
     23 C6        -10.8400  -22.1250  -18.0160 C.2       1 M7G         0.4098
     24 O6        -11.8750  -22.2950  -18.6940 O.2       1 M7G        -0.2762
     25 N1        -10.8170  -21.5190  -16.8010 N.am      1 M7G        -0.2152
     26 C2         -9.6800  -21.3380  -16.0710 C.cat     1 M7G         0.2333
     27 N2         -9.6650  -20.7400  -14.8620 N.pl3     1 M7G        -0.3251
     28 N3         -8.4930  -21.7860  -16.4780 N.pl3     1 M7G        -0.1473
     29 C4         -8.3860  -22.3930  -17.6790 C.2       1 M7G         0.4104
     30 H1         -5.0071  -19.4684  -19.2097 H         1 M7G         0.0648
     31 H2         -4.0052  -20.6197  -20.1571 H         1 M7G         0.0648
     32 H3         -3.8861  -20.6596  -17.5325 H         1 M7G         0.0650
     33 H4         -3.0823  -22.5295  -19.2952 H         1 M7G         0.0647
     34 H5         -3.8629  -23.3126  -16.6231 H         1 M7G         0.2100
     35 H6         -5.2928  -23.3776  -19.8840 H         1 M7G         0.0655
     36 H7         -3.9275  -25.0976  -18.9663 H         1 M7G         0.2100
     37 H8         -6.0048  -23.5737  -16.9647 H         1 M7G         0.0758
     38 H9         -7.0563  -24.0613  -20.3933 H         1 M7G         0.2243
     39 H10        -9.0885  -24.2492  -21.5063 H         1 M7G         0.0658
     40 H11       -10.2932  -22.9243  -21.3644 H         1 M7G         0.0658
     41 H12       -10.5882  -24.4976  -20.5493 H         1 M7G         0.0658
     42 H13       -11.6807  -21.1876  -16.4213 H         1 M7G         0.1858
     43 H14        -8.7763  -20.6292  -14.3532 H         1 M7G         0.1812
     44 H15       -10.5422  -20.3941  -14.4476 H         1 M7G         0.1812
     45 H16        -7.6624  -21.6699  -15.8801 H         1 M7G         0.2869
@<TRIPOS>BOND
     1    1    2 ar 
     2    1    3 ar 
     3    1    4 1  
     4    1    5 1  
     5    4    6 1  
     6    5   10 1  
     7    6    7 ar 
     8    6    8 ar 
     9    6    9 ar 
    10   10   11 1  
    11   11   12 1  
    12   11   13 1  
    13   12   17 1  
    14   13   14 1  
    15   13   15 1  
    16   15   16 1  
    17   15   17 1  
    18   17   18 1  
    19   18   19 2  
    20   18   29 1  
    21   19   20 1  
    22   20   21 1  
    23   20   22 1  
    24   22   23 1  
    25   22   29 2  
    26   23   24 2  
    27   23   25 am 
    28   25   26 ar 
    29   26   27 ar 
    30   26   28 ar 
    31   28   29 1  
    32   10   30 1  
    33   10   31 1  
    34   11   32 1  
    35   13   33 1  
    36   14   34 1  
    37   15   35 1  
    38   16   36 1  
    39   17   37 1  
    40   19   38 1  
    41   21   39 1  
    42   21   40 1  
    43   21   41 1  
    44   25   42 1  
    45   27   43 1  
    46   27   44 1  
    47   28   45 1  
@<TRIPOS>SUBSTRUCTURE
     1 M7G         1

