### 
### Created by X-TOOL on Fri Nov 18 15:25:40 2016
### 

@<TRIPOS>MOLECULE
3fed_ligand
   35    34     1     0     0
SMALL
GAST_HUCK


@<TRIPOS>ATOM
      1 C2         22.7110   44.6760   15.8310 C.3       1 BIX         0.0298
      2 C5         21.0930   45.2890   17.7790 C.3       1 BIX         0.0203
      3 C3         22.4110   45.9540   15.1150 C.2       1 BIX         0.0845
      4 C4         21.5760   44.2040   16.7940 C.3       1 BIX         0.0182
      5 C1         18.5420   43.8280   18.1310 C.3       1 BIX         0.0278
      6 O1         22.8480   46.9960   15.6410 O.co2     1 BIX        -0.5643
      7 OE2        14.8810   40.5640   16.7220 O.co2     1 BIX        -0.5690
      8 CD         15.6400   41.2130   16.0280 C.2       1 BIX         0.0349
      9 OE1        15.4790   41.3710   14.8060 O.co2     1 BIX        -0.5690
     10 CG         16.8510   41.8730   16.6490 C.3       1 BIX         0.0020
     11 CB         16.8120   41.9870   18.1830 C.3       1 BIX        -0.0256
     12 CA         18.1300   42.5160   18.7980 C.3       1 BIX         0.0291
     13 C          19.1500   41.4400   18.5880 C.2       1 BIX         0.0395
     14 OC         19.1900   40.4590   19.3500 O.co2     1 BIX        -0.5687
     15 O          19.9940   41.5290   17.6280 O.co2     1 BIX        -0.5687
     16 P6         19.8950   44.7490   19.0050 P.3       1 BIX        -0.0138
     17 O61        20.5680   43.8330   19.9820 O.co2     1 BIX        -0.6189
     18 O6         19.2410   45.8780   19.6660 O.co2     1 BIX        -0.6189
     19 N          23.9310   44.7870   16.5960 N.4       1 BIX         0.2327
     20 O3         21.7070   45.9640   14.0650 O.co2     1 BIX        -0.5643
     21 H1         22.8491   43.8976   15.0661 H         1 BIX         0.1025
     22 H2         20.6347   46.0987   17.1922 H         1 BIX         0.0468
     23 H3         21.9729   45.6763   18.3137 H         1 BIX         0.0468
     24 H4         21.9510   43.3502   17.3775 H         1 BIX         0.0354
     25 H5         20.7177   43.8835   16.1853 H         1 BIX         0.0354
     26 H6         17.6580   44.4809   18.0836 H         1 BIX         0.0486
     27 H7         18.8853   43.6010   17.1109 H         1 BIX         0.0486
     28 H8         16.9379   42.8877   16.2332 H         1 BIX         0.0432
     29 H9         17.7393   41.2861   16.3726 H         1 BIX         0.0432
     30 H10        16.6087   40.9900   18.6009 H         1 BIX         0.0304
     31 H11        15.9986   42.6736   18.4603 H         1 BIX         0.0304
     32 H12        17.9961   42.6930   19.8754 H         1 BIX         0.0482
     33 H13        24.6792   45.0912   15.9929 H         1 BIX         0.2010
     34 H14        24.1623   43.8893   16.9918 H         1 BIX         0.2010
     35 H15        23.8030   45.4581   17.3372 H         1 BIX         0.2010
@<TRIPOS>BOND
     1    1    3 1  
     2    4    1 1  
     3    1   19 1  
     4    2    4 1  
     5   16    2 1  
     6    3    6 ar 
     7    3   20 ar 
     8   12    5 1  
     9    5   16 1  
    10    8    7 ar 
    11    8    9 ar 
    12   10    8 1  
    13   11   10 1  
    14   11   12 1  
    15   12   13 1  
    16   13   14 ar 
    17   13   15 ar 
    18   16   17 ar 
    19   16   18 ar 
    20    1   21 1  
    21    2   22 1  
    22    2   23 1  
    23    4   24 1  
    24    4   25 1  
    25    5   26 1  
    26    5   27 1  
    27   10   28 1  
    28   10   29 1  
    29   11   30 1  
    30   11   31 1  
    31   12   32 1  
    32   19   33 1  
    33   19   34 1  
    34   19   35 1  
@<TRIPOS>SUBSTRUCTURE
     1 BIX         1

