### 
### Created by X-TOOL on Fri Nov 18 13:15:20 2016
### 

@<TRIPOS>MOLECULE
1mjj_ligand
   60    61     1     0     0
SMALL
GAST_HUCK


@<TRIPOS>ATOM
      1 CP1         0.9290   44.8040   49.5320 C.ar      1 HAL        -0.0411
      2 CP2         1.8140   45.3060   48.5900 C.ar      1 HAL        -0.0603
      3 CP3         1.6210   45.0410   47.2170 C.ar      1 HAL        -0.0686
      4 CP4         0.5340   44.2670   46.8060 C.ar      1 HAL        -0.0687
      5 CP5        -0.3540   43.7690   47.7430 C.ar      1 HAL        -0.0686
      6 CP6        -0.1510   44.0450   49.1040 C.ar      1 HAL        -0.0603
      7 C1          1.2050   44.9530   51.0010 C.3       1 HAL         0.0011
      8 C2          1.4930   43.6330   51.6780 C.3       1 HAL         0.0405
      9 N1          1.8830   43.7210   53.0910 N.am      1 HAL        -0.2828
     10 C3          1.9650   42.6430   53.8630 C.2       1 HAL         0.2080
     11 O1          1.7290   41.5160   53.4220 O.2       1 HAL        -0.3941
     12 C4          2.4090   42.8350   55.3130 C.3       1 HAL         0.1705
     13 O2          1.9130   44.0670   55.8320 O.3       1 HAL        -0.2575
     14 P           2.8310   45.3760   55.8720 P.3       1 HAL         0.1512
     15 O3          2.4290   46.2660   54.7550 O.co2     1 HAL        -0.6186
     16 O4          4.2530   44.9690   55.9870 O.co2     1 HAL        -0.6186
     17 C5          2.4930   46.0840   57.1370 C.3       1 HAL         0.1404
     18 C6          3.1840   47.4680   57.2620 C.3       1 HAL         0.0226
     19 CR1         2.8780   48.2080   58.5710 C.ar      1 HAL        -0.0392
     20 CR2         3.7320   48.1050   59.6700 C.ar      1 HAL        -0.0602
     21 CR3         3.4410   48.7710   60.8850 C.ar      1 HAL        -0.0686
     22 CR4         2.2770   49.5490   61.0000 C.ar      1 HAL        -0.0687
     23 CR5         1.4180   49.6540   59.8950 C.ar      1 HAL        -0.0686
     24 CR6         1.7270   48.9890   58.7020 C.ar      1 HAL        -0.0602
     25 N2          1.0620   46.3130   57.3530 N.am      1 HAL        -0.2643
     26 C7          0.3640   45.7610   58.3510 C.2       1 HAL         0.1777
     27 O5          0.8420   44.9520   59.1510 O.2       1 HAL        -0.3970
     28 C8         -1.1120   46.1430   58.4520 C.3       1 HAL         0.0388
     29 C9         -1.6610   46.0580   59.9190 C.3       1 HAL        -0.0245
     30 C10        -0.8230   46.9040   60.8740 C.3       1 HAL         0.0023
     31 C11        -1.3660   46.8920   62.3060 C.2       1 HAL         0.0349
     32 O6         -1.1790   47.9010   63.0130 O.co2     1 HAL        -0.5690
     33 O7         -1.9530   45.8750   62.7330 O.co2     1 HAL        -0.5690
     34 H1          2.6588   45.9053   48.9097 H         1 HAL         0.0557
     35 H2          2.3145   45.4371   46.4840 H         1 HAL         0.0599
     36 H3          0.3858   44.0563   45.7530 H         1 HAL         0.0559
     37 H4         -1.2007   43.1698   47.4280 H         1 HAL         0.0599
     38 H5         -0.8515   43.6578   49.8351 H         1 HAL         0.0557
     39 H6          0.3259   45.4093   51.4796 H         1 HAL         0.0446
     40 H7          2.0762   45.6120   51.1302 H         1 HAL         0.0446
     41 H8          2.3110   43.1422   51.1303 H         1 HAL         0.0542
     42 H9          0.5859   43.0141   51.6144 H         1 HAL         0.0542
     43 H10         2.0926   44.6169   53.4828 H         1 HAL         0.1853
     44 H11         3.5081   42.8411   55.3565 H         1 HAL         0.0868
     45 H12         2.0225   42.0047   55.9222 H         1 HAL         0.0868
     46 H13         2.8564   45.4464   57.9564 H         1 HAL         0.0810
     47 H14         2.8500   48.0973   56.4239 H         1 HAL         0.0465
     48 H15         4.2717   47.3176   57.1970 H         1 HAL         0.0465
     49 H16         4.6320   47.5058   59.5922 H         1 HAL         0.0557
     50 H17         4.1171   48.6805   61.7274 H         1 HAL         0.0599
     51 H18         2.0459   50.0602   61.9275 H         1 HAL         0.0559
     52 H19         0.5152   50.2500   59.9651 H         1 HAL         0.0599
     53 H20         1.0546   49.0828   57.8569 H         1 HAL         0.0557
     54 H21         0.5799   46.9165   56.7179 H         1 HAL         0.1872
     55 H22        -1.6963   45.4602   57.8177 H         1 HAL         0.0503
     56 H23        -1.2340   47.1745   58.0900 H         1 HAL         0.0503
     57 H24        -1.6345   45.0098   60.2515 H         1 HAL         0.0307
     58 H25        -2.6990   46.4216   59.9349 H         1 HAL         0.0307
     59 H26        -0.8145   47.9419   60.5096 H         1 HAL         0.0432
     60 H27         0.2041   46.5104   60.8839 H         1 HAL         0.0432
@<TRIPOS>BOND
     1    1    2 ar 
     2    1    6 ar 
     3    1    7 1  
     4    2    3 ar 
     5    3    4 ar 
     6    4    5 ar 
     7    5    6 ar 
     8    7    8 1  
     9    8    9 1  
    10    9   10 am 
    11   10   11 2  
    12   10   12 1  
    13   12   13 1  
    14   13   14 1  
    15   14   15 ar 
    16   14   16 ar 
    17   14   17 1  
    18   17   18 1  
    19   17   25 1  
    20   18   19 1  
    21   19   20 ar 
    22   19   24 ar 
    23   20   21 ar 
    24   21   22 ar 
    25   22   23 ar 
    26   23   24 ar 
    27   25   26 am 
    28   26   27 2  
    29   26   28 1  
    30   28   29 1  
    31   29   30 1  
    32   30   31 1  
    33   31   32 ar 
    34   31   33 ar 
    35    2   34 1  
    36    3   35 1  
    37    4   36 1  
    38    5   37 1  
    39    6   38 1  
    40    7   39 1  
    41    7   40 1  
    42    8   41 1  
    43    8   42 1  
    44    9   43 1  
    45   12   44 1  
    46   12   45 1  
    47   17   46 1  
    48   18   47 1  
    49   18   48 1  
    50   20   49 1  
    51   21   50 1  
    52   22   51 1  
    53   23   52 1  
    54   24   53 1  
    55   25   54 1  
    56   28   55 1  
    57   28   56 1  
    58   29   57 1  
    59   29   58 1  
    60   30   59 1  
    61   30   60 1  
@<TRIPOS>SUBSTRUCTURE
     1 HAL         1

