### 
### Created by X-TOOL on Fri Nov 18 14:50:57 2016
### 

@<TRIPOS>MOLECULE
2clh_ligand
   33    34     1     0     0
SMALL
GAST_HUCK


@<TRIPOS>ATOM
      1 C1         51.4300   24.8680   14.8070 C.ar      1 F19        -0.0522
      2 C2         50.5780   25.8790   15.2670 C.ar      1 F19        -0.0345
      3 C3         49.1770   25.6170   15.5370 C.ar      1 F19         0.1087
      4 C4         48.7780   24.2650   15.6510 C.ar      1 F19        -0.0274
      5 C5         49.6120   23.1800   15.1620 C.ar      1 F19        -0.0160
      6 C6         50.9740   23.4920   14.7470 C.ar      1 F19        -0.0178
      7 C7         51.8550   22.4590   14.2870 C.ar      1 F19        -0.0540
      8 C8         51.2870   20.9950   14.3830 C.ar      1 F19        -0.0612
      9 C9         50.0040   20.6580   14.9310 C.ar      1 F19        -0.0612
     10 C10        49.1220   21.8170   15.0610 C.ar      1 F19        -0.0540
     11 S11        48.0150   26.9810   15.7360 S.o2      1 F19         0.0683
     12 O12        46.6800   26.4500   15.4520 O.2       1 F19        -0.1503
     13 O13        48.1490   27.4850   17.0820 O.2       1 F19        -0.1503
     14 C16        47.9510   28.9050   12.4260 C.3       1 F19         0.0951
     15 O17        47.9350   28.3420   11.1250 O.3       1 F19        -0.2745
     16 C18        48.7880   28.0370   13.3410 C.3       1 F19         0.0544
     17 N1         48.4070   28.2920   14.7270 N.am      1 F19        -0.2449
     18 O20        46.6860   30.2280    9.7300 O.co2     1 F19        -0.5537
     19 O21        49.0050   30.2430   10.0020 O.co2     1 F19        -0.5537
     20 P          47.7920   29.3570    9.8630 P.3       1 F19         0.2007
     21 O22        47.8990   28.5460    8.6550 O.co2     1 F19        -0.5537
     22 H1         52.4378   25.1150   14.4933 H         1 F19         0.0624
     23 H2         50.9725   26.8763   15.4244 H         1 F19         0.0637
     24 H3         47.8263   24.0322   16.1147 H         1 F19         0.0643
     25 H4         52.8447   22.6720   13.8996 H         1 F19         0.0624
     26 H5         51.9060   20.1869   14.0104 H         1 F19         0.0618
     27 H6         49.7194   19.6521   15.2178 H         1 F19         0.0618
     28 H7         48.0511   21.6506   15.0830 H         1 F19         0.0624
     29 H8         46.9231   28.9619   12.8136 H         1 F19         0.0628
     30 H9         48.3831   29.9156   12.3829 H         1 F19         0.0628
     31 H10        49.8527   28.2762   13.2024 H         1 F19         0.0501
     32 H11        48.6160   26.9773   13.1014 H         1 F19         0.0501
     33 H12        48.3769   29.2275   15.0791 H         1 F19         0.1673
@<TRIPOS>BOND
     1    2    1 ar 
     2    1    6 ar 
     3    3    2 ar 
     4    3    4 ar 
     5   11    3 1  
     6    4    5 ar 
     7    5    6 ar 
     8    5   10 ar 
     9    6    7 ar 
    10    7    8 ar 
    11    9    8 ar 
    12   10    9 ar 
    13   11   12 2  
    14   11   13 2  
    15   17   11 am 
    16   14   15 1  
    17   16   14 1  
    18   15   20 1  
    19   16   17 1  
    20   20   18 ar 
    21   20   19 ar 
    22   20   21 ar 
    23    1   22 1  
    24    2   23 1  
    25    4   24 1  
    26    7   25 1  
    27    8   26 1  
    28    9   27 1  
    29   10   28 1  
    30   14   29 1  
    31   14   30 1  
    32   16   31 1  
    33   16   32 1  
    34   17   33 1  
@<TRIPOS>SUBSTRUCTURE
     1 F19         1

