### 
### Created by X-TOOL on Fri Nov 18 15:40:17 2016
### 

@<TRIPOS>MOLECULE
2wzf_ligand
   36    37     1     0     0
SMALL
GAST_HUCK


@<TRIPOS>ATOM
      1 N1         -0.3060   -0.0030   24.8420 N.am      1 UDP        -0.1592
      2 C2         -1.4880   -0.1370   25.5730 C.2       1 UDP         0.3328
      3 N3         -1.6320   -1.1740   26.4740 N.am      1 UDP        -0.1865
      4 C4         -0.5890   -2.0920   26.6630 C.2       1 UDP         0.1822
      5 C5          0.5940   -1.9690   25.9250 C.2       1 UDP         0.0062
      6 C6          0.7530   -0.9150   25.0050 C.2       1 UDP         0.0591
      7 O2         -2.4050    0.6750   25.4120 O.2       1 UDP        -0.3815
      8 O4         -0.7690   -2.9950   27.4810 O.2       1 UDP        -0.4124
      9 C1'        -0.2730    1.1160   23.8910 C.3       1 UDP         0.2059
     10 C2'         0.0800    2.4650   24.5330 C.3       1 UDP         0.1387
     11 O2'        -0.5360    3.5520   23.8070 O.3       1 UDP        -0.3836
     12 C3'         1.5550    2.4560   24.3730 C.3       1 UDP         0.1149
     13 C4'         1.6660    1.8120   22.9750 C.3       1 UDP         0.1189
     14 O4'         0.7450    0.7390   22.9650 O.3       1 UDP        -0.3363
     15 O3'         2.0940    3.7720   24.2920 O.3       1 UDP        -0.3864
     16 C5'         3.1170    1.4220   22.6060 C.3       1 UDP         0.1132
     17 O5'         3.7350    0.6090   23.6290 O.3       1 UDP        -0.2436
     18 PA          5.3200    0.5050   23.7710 P.3       1 UDP         0.3276
     19 O1A         5.9610    1.9730   23.9330 O.co2     1 UDP        -0.5556
     20 O2A         5.7370   -0.4270   24.8600 O.co2     1 UDP        -0.5556
     21 O3A         5.7590   -0.0450   22.3360 O.3       1 UDP        -0.1548
     22 PB          7.1480    0.1830   21.6250 P.3       1 UDP         0.2069
     23 O1B         7.2640    1.7470   21.3590 O.co2     1 UDP        -0.5891
     24 O2B         8.2790   -0.2260   22.6810 O.co2     1 UDP        -0.5891
     25 O3B         7.2150   -0.6240   20.3680 O.co2     1 UDP        -0.5891
     26 H1         -2.4817   -1.2703   26.9925 H         1 UDP         0.2259
     27 H2          1.3960   -2.6926   26.0632 H         1 UDP         0.0258
     28 H3          1.6737   -0.8082   24.4332 H         1 UDP         0.1178
     29 H4         -1.2457    1.2085   23.3858 H         1 UDP         0.0997
     30 H5         -0.2160    2.5095   25.5915 H         1 UDP         0.0676
     31 H6         -0.3062    4.3768   24.2188 H         1 UDP         0.2101
     32 H7          2.0580    1.8755   25.1604 H         1 UDP         0.0648
     33 H8          1.3374    2.5486   22.2271 H         1 UDP         0.0651
     34 H9          1.6002    4.2767   23.6565 H         1 UDP         0.2100
     35 H10         3.7093    2.3396   22.4754 H         1 UDP         0.0648
     36 H11         3.1040    0.8566   21.6625 H         1 UDP         0.0648
@<TRIPOS>BOND
     1    1    2 am 
     2    1    6 1  
     3    1    9 1  
     4    2    3 am 
     5    2    7 2  
     6    3    4 am 
     7    4    5 1  
     8    4    8 2  
     9    5    6 2  
    10    9   10 1  
    11    9   14 1  
    12   10   11 1  
    13   10   12 1  
    14   12   13 1  
    15   12   15 1  
    16   13   14 1  
    17   13   16 1  
    18   16   17 1  
    19   17   18 1  
    20   18   19 ar 
    21   18   20 ar 
    22   18   21 1  
    23   21   22 1  
    24   22   23 ar 
    25   22   24 ar 
    26   22   25 ar 
    27    3   26 1  
    28    5   27 1  
    29    6   28 1  
    30    9   29 1  
    31   10   30 1  
    32   11   31 1  
    33   12   32 1  
    34   13   33 1  
    35   15   34 1  
    36   16   35 1  
    37   16   36 1  
@<TRIPOS>SUBSTRUCTURE
     1 UDP         1

