### 
### Created by X-TOOL on Wed Dec 13 14:17:47 2017
### 

@<TRIPOS>MOLECULE
5d3x_ligand
   36    36     1     0     0
SMALL
GAST_HUCK


@<TRIPOS>ATOM
      1 C1          4.5500    8.7320    4.8970 C.3       1 MOL         0.1463
      2 O1          3.3010    9.1490    5.4170 O.3       1 MOL        -0.2675
      3 C2          4.4160    7.4330    4.1210 C.3       1 MOL         0.1215
      4 O2          4.0880    6.3630    4.9840 O.3       1 MOL        -0.3858
      5 C3          5.7100    7.1440    3.3590 C.3       1 MOL         0.1509
      6 O3          5.6870    5.8300    2.8080 O.3       1 MOL        -0.2672
      7 C4          7.0240    7.6750    4.0030 C.3       1 MOL         0.1550
      8 O4          8.3080    7.0360    3.8920 O.3       1 MOL        -0.2669
      9 C5          6.9410    8.3920    5.3820 C.3       1 MOL         0.1509
     10 O5          7.8590    7.8850    6.3420 O.3       1 MOL        -0.2672
     11 C6          5.5650    8.5370    6.0010 C.3       1 MOL         0.1215
     12 O6          5.6040    9.7030    6.8040 O.3       1 MOL        -0.3858
     13 P1          2.4210   10.1740    4.5840 P.3       1 MOL         0.2013
     14 O1P         1.6850    9.4490    3.4750 O.co2     1 MOL        -0.5537
     15 O2P         3.3030   11.2480    3.9860 O.co2     1 MOL        -0.5537
     16 O3P         1.4150   10.8100    5.5180 O.co2     1 MOL        -0.5537
     17 P3          5.6690    5.8100    1.2000 P.3       1 MOL         0.2013
     18 O4P         4.5440    6.6400    0.6250 O.co2     1 MOL        -0.5537
     19 O5P         5.5430    4.3640    0.8100 O.co2     1 MOL        -0.5537
     20 O6P         7.0020    6.3600    0.7350 O.co2     1 MOL        -0.5537
     21 P4          8.9680    5.6350    3.5090 P.3       1 MOL         0.2013
     22 O7P         8.3080    4.4890    4.2590 O.co2     1 MOL        -0.5537
     23 O8P        10.3850    5.8310    4.0240 O.co2     1 MOL        -0.5537
     24 O9P         9.0130    5.4570    2.0020 O.co2     1 MOL        -0.5537
     25 P5          9.2520    8.6310    6.4980 P.3       1 MOL         0.2013
     26 OPF        10.3720    7.6540    6.2420 O.co2     1 MOL        -0.5537
     27 OPG         9.3280    9.7600    5.4970 O.co2     1 MOL        -0.5537
     28 OPH         9.3950    9.1390    7.9100 O.co2     1 MOL        -0.5537
     29 H1          4.9167    9.5136    4.2153 H         1 MOL         0.0703
     30 H2          3.6016    7.5474    3.3905 H         1 MOL         0.0654
     31 H3          4.0094    5.5626    4.4784 H         1 MOL         0.2100
     32 H4          5.6261    7.7822    2.4670 H         1 MOL         0.0706
     33 H5          7.1849    8.5316    3.3320 H         1 MOL         0.0710
     34 H6          7.2682    9.4213    5.1734 H         1 MOL         0.0706
     35 H7          5.3107    7.6534    6.6047 H         1 MOL         0.0654
     36 H8          4.7566    9.8326    7.2135 H         1 MOL         0.2100
@<TRIPOS>BOND
     1    1    2 1  
     2    1    3 1  
     3    1   11 1  
     4    2   13 1  
     5    3    4 1  
     6    3    5 1  
     7    5    6 1  
     8    5    7 1  
     9    6   17 1  
    10    7    8 1  
    11    7    9 1  
    12    8   21 1  
    13    9   10 1  
    14    9   11 1  
    15   10   25 1  
    16   11   12 1  
    17   13   14 ar 
    18   13   15 ar 
    19   13   16 ar 
    20   17   18 ar 
    21   17   19 ar 
    22   17   20 ar 
    23   21   22 ar 
    24   21   23 ar 
    25   21   24 ar 
    26   25   26 ar 
    27   25   27 ar 
    28   25   28 ar 
    29    1   29 1  
    30    3   30 1  
    31    4   31 1  
    32    5   32 1  
    33    7   33 1  
    34    9   34 1  
    35   11   35 1  
    36   12   36 1  
@<TRIPOS>SUBSTRUCTURE
     1 MOL         1

