### 
### Created by X-TOOL on Fri Nov 18 15:12:51 2016
### 

@<TRIPOS>MOLECULE
2vnp_ligand
   25    24     1     0     0
SMALL
GAST_HUCK


@<TRIPOS>ATOM
      1 O1         -1.6720    0.6250   21.3870 O.co2     1 DED        -0.5891
      2 O2         -3.7210    1.0690   19.9630 O.co2     1 DED        -0.5891
      3 O3         -1.5470    0.2950   18.9090 O.co2     1 DED        -0.5891
      4 P4         -2.4380    0.2670   20.0930 P.3       1 DED         0.2069
      5 O5         -2.7330   -1.3280   20.2100 O.3       1 DED        -0.1548
      6 O6         -5.0170   -1.5140   19.2030 O.co2     1 DED        -0.5556
      7 O7         -3.0500   -2.9650   18.2660 O.co2     1 DED        -0.5556
      8 P8         -3.7260   -2.3000   19.3890 P.3       1 DED         0.3277
      9 O9         -4.0540   -3.5270   20.4160 O.3       1 DED        -0.2409
     10 C10        -4.4590   -3.4010   21.8150 C.3       1 DED         0.1240
     11 C11        -4.4040   -4.7010   22.6530 C.3       1 DED        -0.0032
     12 N12        -4.6100   -5.9260   21.8220 N.4       1 DED         0.2328
     13 C13        -5.8970   -6.5730   22.1070 C.3       1 DED        -0.0433
     14 C14        -4.3750   -5.9280   20.3750 C.3       1 DED        -0.0433
     15 H1         -5.4947   -3.0309   21.8343 H         1 DED         0.0675
     16 H2         -3.7971   -2.6636   22.2927 H         1 DED         0.0675
     17 H3         -5.1904   -4.6593   23.4210 H         1 DED         0.0841
     18 H4         -3.4195   -4.7660   23.1393 H         1 DED         0.0841
     19 H5         -3.9085   -6.5584   22.1740 H         1 DED         0.2029
     20 H6         -6.0059   -7.4668   21.4752 H         1 DED         0.0777
     21 H7         -6.7160   -5.8706   21.8927 H         1 DED         0.0777
     22 H8         -5.9333   -6.8663   23.1665 H         1 DED         0.0777
     23 H9         -3.4112   -5.4437   20.1594 H         1 DED         0.0777
     24 H10        -5.1830   -5.3769   19.8715 H         1 DED         0.0777
     25 H11        -4.3544   -6.9649   20.0083 H         1 DED         0.0777
@<TRIPOS>BOND
     1    1    4 ar 
     2    4    2 ar 
     3    4    3 ar 
     4    4    5 1  
     5    5    8 1  
     6    8    6 ar 
     7    8    7 ar 
     8    8    9 1  
     9    9   10 1  
    10   10   11 1  
    11   11   12 1  
    12   12   13 1  
    13   12   14 1  
    14   10   15 1  
    15   10   16 1  
    16   11   17 1  
    17   11   18 1  
    18   12   19 1  
    19   13   20 1  
    20   13   21 1  
    21   13   22 1  
    22   14   23 1  
    23   14   24 1  
    24   14   25 1  
@<TRIPOS>SUBSTRUCTURE
     1 DED         1

