### 
### Created by X-TOOL on Fri Nov 18 16:49:08 2016
### 

@<TRIPOS>MOLECULE
4fxp_ligand
   39    41     1     0     0
SMALL
GAST_HUCK


@<TRIPOS>ATOM
      1 SB         -8.3400   -9.6180   11.6200 S.o2      1 ADX        -0.0397
      2 O1B        -7.7700  -10.4300   10.5780 O.co2     1 ADX        -0.4575
      3 O2B        -8.4700  -10.4280   12.8540 O.co2     1 ADX        -0.4575
      4 O3B        -7.4620   -8.4570   11.8720 O.co2     1 ADX        -0.4575
      5 PA        -10.1260   -8.0300   10.2190 P.3       1 ADX         0.2859
      6 O1A        -9.1420   -8.0340    9.0940 O.co2     1 ADX        -0.6163
      7 O2A       -10.2000   -6.6890   10.9270 O.co2     1 ADX        -0.6163
      8 O3A        -9.7290   -9.1870   11.2330 O.3       1 ADX        -0.1330
      9 O5'       -11.5610   -8.4180    9.6880 O.3       1 ADX        -0.2499
     10 C5'       -12.7040   -8.3530   10.5080 C.3       1 ADX         0.1125
     11 C4'       -13.9820   -8.3720    9.8260 C.3       1 ADX         0.1189
     12 O4'       -14.1220   -9.6250    9.1610 O.3       1 ADX        -0.3364
     13 C3'       -15.1360   -8.2820   10.7720 C.3       1 ADX         0.1149
     14 O3'       -15.6480   -6.9810   10.8070 O.3       1 ADX        -0.3864
     15 C2'       -16.1220   -9.1140   10.1880 C.3       1 ADX         0.1385
     16 O2'       -16.8610   -8.3470    9.2830 O.3       1 ADX        -0.3836
     17 C1'       -15.4110  -10.1190    9.3720 C.3       1 ADX         0.2010
     18 N9        -15.3840  -11.4400    9.9320 N.pl3     1 ADX        -0.1919
     19 C8        -15.7470  -12.5710    9.2860 C.2       1 ADX         0.1123
     20 N7        -15.4500  -13.6220   10.0680 N.2       1 ADX        -0.2958
     21 C5        -14.8840  -13.1600   11.2070 C.ar      1 ADX         0.1045
     22 C6        -14.3800  -13.7740   12.3680 C.ar      1 ADX         0.1298
     23 N6        -14.3900  -15.1970   12.4680 N.pl3     1 ADX        -0.3152
     24 N1        -13.8650  -13.0130   13.3680 N.ar      1 ADX        -0.2698
     25 C2        -13.8360  -11.6720   13.2570 C.ar      1 ADX         0.0533
     26 N3        -14.3040  -11.0530   12.1460 N.ar      1 ADX        -0.2714
     27 C4        -14.8340  -11.7640   11.1230 C.ar      1 ADX         0.1613
     28 H1        -12.6476   -7.4208   11.0892 H         1 ADX         0.0647
     29 H2        -12.6758   -9.2140   11.1921 H         1 ADX         0.0647
     30 H3        -14.0232   -7.5422    9.1051 H         1 ADX         0.0651
     31 H4        -14.8559   -8.6176   11.7814 H         1 ADX         0.0648
     32 H5        -15.9431   -6.7345    9.9382 H         1 ADX         0.2100
     33 H6        -16.7637   -9.5787   10.9511 H         1 ADX         0.0676
     34 H7        -16.2818   -8.0059    8.6118 H         1 ADX         0.2101
     35 H8        -15.9229  -10.1913    8.4011 H         1 ADX         0.0996
     36 H9        -16.2032  -12.6213    8.2984 H         1 ADX         0.1349
     37 H10       -14.0233  -15.6564   13.3138 H         1 ADX         0.1820
     38 H11       -14.7639  -15.7650   11.6944 H         1 ADX         0.1820
     39 H12       -13.4321  -11.0779   14.0688 H         1 ADX         0.0996
@<TRIPOS>BOND
     1    1    2 ar 
     2    1    3 ar 
     3    1    4 ar 
     4    8    1 1  
     5    5    6 ar 
     6    5    7 ar 
     7    5    8 1  
     8    5    9 1  
     9    9   10 1  
    10   10   11 1  
    11   11   12 1  
    12   11   13 1  
    13   12   17 1  
    14   13   14 1  
    15   13   15 1  
    16   15   16 1  
    17   15   17 1  
    18   17   18 1  
    19   18   19 1  
    20   18   27 1  
    21   19   20 2  
    22   20   21 1  
    23   21   22 ar 
    24   21   27 ar 
    25   22   23 1  
    26   22   24 ar 
    27   24   25 ar 
    28   25   26 ar 
    29   26   27 ar 
    30   10   28 1  
    31   10   29 1  
    32   11   30 1  
    33   13   31 1  
    34   14   32 1  
    35   15   33 1  
    36   16   34 1  
    37   17   35 1  
    38   19   36 1  
    39   23   37 1  
    40   23   38 1  
    41   25   39 1  
@<TRIPOS>SUBSTRUCTURE
     1 ADX         1

