### 
### Created by X-TOOL on Wed Dec 13 14:17:44 2017
### 

@<TRIPOS>MOLECULE
5cso_ligand
   30    31     1     0     0
SMALL
GAST_HUCK


@<TRIPOS>ATOM
      1 O5'        20.7720    5.5960   -8.3080 O.3       1 CTN        -0.3924
      2 C5'        21.9090    5.7220   -7.4490 C.3       1 CTN         0.0730
      3 C4'        21.5960    6.6940   -6.3150 C.3       1 CTN         0.1136
      4 O4'        20.7950    6.0740   -5.3010 O.3       1 CTN        -0.3357
      5 C1'        21.2950    6.3880   -3.9950 C.3       1 CTN         0.2109
      6 N1         21.7740    5.1800   -3.3080 N.am      1 CTN        -0.1467
      7 C6         22.3940    4.2080   -4.0020 C.2       1 CTN         0.0739
      8 C5         22.8500    3.0670   -3.3550 C.2       1 CTN         0.0019
      9 C4         22.6650    2.9430   -1.9820 C.2       1 CTN         0.0853
     10 N3         22.0480    3.9210   -1.2840 N.am      1 CTN        -0.1924
     11 C2         21.6010    5.0340   -1.9070 C.2       1 CTN         0.3488
     12 O2         21.0390    5.9170   -1.2260 O.2       1 CTN        -0.3777
     13 N4         23.1010    1.8430   -1.3370 N.2       1 CTN        -0.4291
     14 C2'        22.4500    7.3610   -4.1730 C.3       1 CTN         0.1399
     15 O2'        22.0250    8.6950   -3.8720 O.3       1 CTN        -0.3835
     16 C3'        22.8530    7.2060   -5.6270 C.3       1 CTN         0.1147
     17 O3'        23.3030    8.4380   -6.1990 O.3       1 CTN        -0.3864
     18 H1         20.5566    6.4462   -8.6731 H         1 CTN         0.2095
     19 H2         22.7641    6.1003   -8.0284 H         1 CTN         0.0584
     20 H3         22.1587    4.7373   -7.0272 H         1 CTN         0.0584
     21 H4         21.0466    7.5476   -6.7387 H         1 CTN         0.0647
     22 H5         20.4990    6.8545   -3.3960 H         1 CTN         0.1013
     23 H6         22.5388    4.3167   -5.0759 H         1 CTN         0.1288
     24 H7         23.3472    2.2776   -3.9167 H         1 CTN         0.0330
     25 H8         21.9208    3.8207   -0.2972 H         1 CTN         0.2412
     26 H9         23.5626    1.1079   -1.8496 H         1 CTN         0.0340
     27 H10        23.2889    7.0924   -3.5141 H         1 CTN         0.0677
     28 H11        21.7210    8.7340   -2.9727 H         1 CTN         0.2101
     29 H12        23.6605    6.4643   -5.7155 H         1 CTN         0.0648
     30 H13        22.6050    9.0808   -6.1531 H         1 CTN         0.2100
@<TRIPOS>BOND
     1    1    2 1  
     2    2    3 1  
     3    3    4 1  
     4    3   16 1  
     5    4    5 1  
     6    5    6 1  
     7    5   14 1  
     8    6    7 1  
     9    6   11 am 
    10    7    8 2  
    11    8    9 1  
    12    9   10 1  
    13    9   13 2  
    14   10   11 am 
    15   11   12 2  
    16   14   15 1  
    17   14   16 1  
    18   16   17 1  
    19    1   18 1  
    20    2   19 1  
    21    2   20 1  
    22    3   21 1  
    23    5   22 1  
    24    7   23 1  
    25    8   24 1  
    26   10   25 1  
    27   13   26 1  
    28   14   27 1  
    29   15   28 1  
    30   16   29 1  
    31   17   30 1  
@<TRIPOS>SUBSTRUCTURE
     1 CTN         1

