### 
### Created by X-TOOL on Fri Nov 18 12:04:15 2016
### 

@<TRIPOS>MOLECULE
1njc_ligand
   32    33     1     0     0
SMALL
GAST_HUCK


@<TRIPOS>ATOM
      1 N1         14.9020   46.4380  -51.7190 N.am      1 DCM        -0.1675
      2 C2         14.1850   45.3580  -51.2250 C.2       1 DCM         0.2512
      3 N3         13.7110   45.4090  -49.9240 N.2       1 DCM        -0.2774
      4 C4         13.9520   46.4790  -49.1260 C.2       1 DCM         0.0850
      5 C5         14.6640   47.6150  -49.6750 C.2       1 DCM         0.0083
      6 C6         15.1110   47.5240  -51.0020 C.2       1 DCM         0.0794
      7 O2         13.9430   44.3460  -51.8670 O.2       1 DCM        -0.4066
      8 N4         13.6750   46.4080  -47.8210 N.pl3     1 DCM        -0.3156
      9 C1'        15.7210   46.3370  -52.9350 C.3       1 DCM         0.1859
     10 C2'        15.0440   46.1050  -54.2880 C.3       1 DCM         0.0339
     11 C3'        16.2320   46.2250  -55.2340 C.3       1 DCM         0.0892
     12 C4'        16.9860   47.4800  -54.8130 C.3       1 DCM         0.1159
     13 O4'        16.6240   47.4730  -53.3390 O.3       1 DCM        -0.3368
     14 O3'        17.1240   45.1520  -54.9100 O.3       1 DCM        -0.3889
     15 C5'        16.4080   48.7120  -55.5100 C.3       1 DCM         0.1071
     16 O5'        16.8400   48.7060  -56.9070 O.3       1 DCM        -0.2734
     17 P          15.9630   49.4190  -58.0000 P.3       1 DCM         0.2008
     18 O1P        16.6410   49.6050  -59.3080 O.co2     1 DCM        -0.5537
     19 O2P        14.9040   48.4060  -58.0760 O.co2     1 DCM        -0.5537
     20 O3P        15.4330   50.7220  -57.5860 O.co2     1 DCM        -0.5537
     21 H1         14.8459   48.5080  -49.0789 H         1 DCM         0.0373
     22 H2         15.6399   48.3654  -51.4472 H         1 DCM         0.1328
     23 H3         13.8564   47.2180  -47.2112 H         1 DCM         0.1833
     24 H4         13.2801   45.5432  -47.4247 H         1 DCM         0.1833
     25 H5         16.3623   45.4659  -52.7352 H         1 DCM         0.0999
     26 H6         14.2836   46.8722  -54.4957 H         1 DCM         0.0347
     27 H7         14.5833   45.1077  -54.3431 H         1 DCM         0.0347
     28 H8         15.9331   46.2336  -56.2926 H         1 DCM         0.0622
     29 H9         18.0696   47.4099  -54.9886 H         1 DCM         0.0649
     30 H10        16.6769   44.3226  -55.0308 H         1 DCM         0.2099
     31 H11        16.7728   49.6234  -55.0137 H         1 DCM         0.0639
     32 H12        15.3094   48.6831  -55.4622 H         1 DCM         0.0639
@<TRIPOS>BOND
     1    1    9 1  
     2    1    6 am 
     3    1    2 am 
     4    2    7 2  
     5    2    3 1  
     6    3    4 2  
     7    4    8 1  
     8    4    5 1  
     9    5    6 2  
    10    9   13 1  
    11    9   10 1  
    12   10   11 1  
    13   11   14 1  
    14   11   12 1  
    15   12   15 1  
    16   12   13 1  
    17   15   16 1  
    18   16   17 1  
    19   17   20 ar 
    20   17   19 ar 
    21   17   18 ar 
    22    5   21 1  
    23    6   22 1  
    24    8   23 1  
    25    8   24 1  
    26    9   25 1  
    27   10   26 1  
    28   10   27 1  
    29   11   28 1  
    30   12   29 1  
    31   14   30 1  
    32   15   31 1  
    33   15   32 1  
@<TRIPOS>SUBSTRUCTURE
     1 DCM         1

