### 
### Created by X-TOOL on Fri Nov 18 14:44:38 2016
### 

@<TRIPOS>MOLECULE
2p09_ligand
   43    45     1     0     0
SMALL
GAST_HUCK


@<TRIPOS>ATOM
      1 PG         -3.2400   26.0270   20.6140 P.3       1 ATP         0.1879
      2 O1G        -3.5630   25.4860   22.0040 O.co2     1 ATP        -0.6091
      3 O2G        -3.8050   25.1340   19.5150 O.co2     1 ATP        -0.6091
      4 O3G        -3.5840   27.5050   20.4060 O.co2     1 ATP        -0.6091
      5 PB         -0.7210   25.7520   19.1450 P.3       1 ATP         0.3553
      6 O1B        -1.6470   25.3820   17.9860 O.co2     1 ATP        -0.5652
      7 O2B         0.4760   24.8390   19.5070 O.co2     1 ATP        -0.5652
      8 O3B        -1.5900   25.9870   20.5070 O.3       1 ATP        -0.1546
      9 PA         -0.2770   28.6810   19.1860 P.3       1 ATP         0.3266
     10 O1A        -1.7430   29.0980   19.4140 O.co2     1 ATP        -0.5692
     11 O2A         0.6920   28.9140   20.3340 O.co2     1 ATP        -0.5692
     12 O3A        -0.0910   27.1800   18.6420 O.3       1 ATP        -0.1171
     13 N9          1.5790   33.1250   16.7850 N.pl3     1 ATP        -0.1919
     14 C8          0.6150   33.2490   17.7370 C.2       1 ATP         0.1123
     15 N7          0.7750   34.4250   18.4050 N.2       1 ATP        -0.2958
     16 C5          1.8340   35.0600   17.8760 C.ar      1 ATP         0.1045
     17 C6          2.5310   36.3250   18.1300 C.ar      1 ATP         0.1298
     18 N6          2.1010   37.1530   19.1260 N.pl3     1 ATP        -0.3152
     19 N1          3.6300   36.6300   17.3590 N.ar      1 ATP        -0.2698
     20 C2          4.0480   35.7750   16.3690 C.ar      1 ATP         0.0533
     21 N3          3.4490   34.5930   16.0920 N.ar      1 ATP        -0.2714
     22 C4          2.3640   34.1890   16.7960 C.ar      1 ATP         0.1613
     23 O5'         0.2570   29.4780   17.9420 O.3       1 ATP        -0.2441
     24 C5'        -0.3620   29.3290   16.6370 C.3       1 ATP         0.1131
     25 C4'         0.5290   29.9810   15.5690 C.3       1 ATP         0.1189
     26 O4'         0.4590   31.4100   15.6640 O.3       1 ATP        -0.3364
     27 C3'         2.0060   29.6410   15.6620 C.3       1 ATP         0.1149
     28 O3'         2.5910   29.7290   14.3410 O.3       1 ATP        -0.3864
     29 C2'         2.5420   30.8290   16.4810 C.3       1 ATP         0.1385
     30 O2'         3.9230   31.0820   16.3450 O.3       1 ATP        -0.3836
     31 C1'         1.7420   31.9900   15.8340 C.3       1 ATP         0.2010
     32 H1         -0.1672   32.5177   17.9351 H         1 ATP         0.1349
     33 H2          2.5906   38.0415   19.3044 H         1 ATP         0.1820
     34 H3          1.2869   36.8894   19.6993 H         1 ATP         0.1820
     35 H4          4.9076   36.0633   15.7748 H         1 ATP         0.0996
     36 H5         -1.3472   29.8182   16.6407 H         1 ATP         0.0648
     37 H6         -0.4843   28.2598   16.4093 H         1 ATP         0.0648
     38 H7          0.1576   29.6593   14.5848 H         1 ATP         0.0651
     39 H8          2.1958   28.6645   16.1314 H         1 ATP         0.0648
     40 H9          3.5158   29.5175   14.3907 H         1 ATP         0.2100
     41 H10         2.3032   30.7068   17.5478 H         1 ATP         0.0676
     42 H11         4.4129   30.3179   16.6255 H         1 ATP         0.2101
     43 H12         2.1914   32.3254   14.8877 H         1 ATP         0.0996
@<TRIPOS>BOND
     1    1    2 ar 
     2    1    3 ar 
     3    1    4 ar 
     4    8    1 1  
     5    5    6 ar 
     6    5    7 ar 
     7    5    8 1  
     8   12    5 1  
     9    9   10 ar 
    10    9   11 ar 
    11    9   12 1  
    12   23    9 1  
    13   13   14 1  
    14   13   22 1  
    15   31   13 1  
    16   14   15 2  
    17   16   15 1  
    18   16   17 ar 
    19   22   16 ar 
    20   17   18 1  
    21   17   19 ar 
    22   20   19 ar 
    23   21   20 ar 
    24   22   21 ar 
    25   24   23 1  
    26   25   24 1  
    27   26   25 1  
    28   25   27 1  
    29   26   31 1  
    30   27   28 1  
    31   27   29 1  
    32   29   30 1  
    33   29   31 1  
    34   14   32 1  
    35   18   33 1  
    36   18   34 1  
    37   20   35 1  
    38   24   36 1  
    39   24   37 1  
    40   25   38 1  
    41   27   39 1  
    42   28   40 1  
    43   29   41 1  
    44   30   42 1  
    45   31   43 1  
@<TRIPOS>SUBSTRUCTURE
     1 ATP         1

