### 
### Created by X-TOOL on Wed Dec 13 14:18:08 2017
### 

@<TRIPOS>MOLECULE
5ect_ligand
   40    41     1     0     0
SMALL
GAST_HUCK


@<TRIPOS>ATOM
      1 O4        -16.6890   14.9450   -0.0470 O.2       1 DUP        -0.4124
      2 C4        -15.8510   14.1530    0.4390 C.2       1 DUP         0.1822
      3 C5        -16.2350   12.8950    0.9380 C.2       1 DUP         0.0062
      4 C6        -15.2660   12.0900    1.4580 C.2       1 DUP         0.0590
      5 N3        -14.5480   14.5610    0.4920 N.am      1 DUP        -0.1865
      6 C2        -13.6190   13.8050    1.0670 C.2       1 DUP         0.3327
      7 O2        -12.4380   14.2440    1.0780 O.2       1 DUP        -0.3815
      8 N1        -13.9590   12.5470    1.5500 N.am      1 DUP        -0.1618
      9 C1'       -12.9400   11.6780    2.1910 C.3       1 DUP         0.1800
     10 C2'       -13.1030   11.6980    3.7240 C.3       1 DUP         0.0316
     11 C3'       -13.8630   10.4430    4.0170 C.3       1 DUP         0.0890
     12 O3'       -13.5940    9.9700    5.3410 O.3       1 DUP        -0.3889
     13 O4'       -13.1200   10.3360    1.7870 O.3       1 DUP        -0.3386
     14 C4'       -13.3100    9.5070    2.9430 C.3       1 DUP         0.1166
     15 C5'       -14.1760    8.3580    2.5670 C.3       1 DUP         0.1132
     16 O5'       -15.4690    8.8620    2.1230 O.3       1 DUP        -0.2529
     17 PA        -16.5420    7.7830    1.5350 P.3       1 DUP         0.2362
     18 O1A       -17.7800    8.5870    1.1060 O.co2     1 DUP        -0.6036
     19 O2A       -16.7800    6.7120    2.5690 O.co2     1 DUP        -0.6036
     20 N3A       -15.7600    7.1370    0.2020 N.am      1 DUP        -0.1581
     21 PB        -15.5710    5.5270   -0.1820 P.3       1 DUP         0.2871
     22 O1B       -15.5680    5.4310   -1.7020 O.co2     1 DUP        -0.5685
     23 O2B       -16.5750    4.6760    0.5540 O.co2     1 DUP        -0.5685
     24 O3B       -14.0950    5.1340    0.2920 O.3       1 DUP        -0.1659
     25 PG        -13.6120    4.3720    1.6260 P.3       1 DUP         0.2047
     26 O2G       -13.3280    2.9740    1.2210 O.co2     1 DUP        -0.5893
     27 O1G       -14.6760    4.5720    2.6920 O.co2     1 DUP        -0.5893
     28 O3G       -12.3000    5.0910    1.9600 O.co2     1 DUP        -0.5893
     29 H1        -17.2753   12.5741    0.9096 H         1 DUP         0.0258
     30 H2        -15.5175   11.0877    1.8015 H         1 DUP         0.1178
     31 H3        -14.2901   15.4407    0.0925 H         1 DUP         0.2259
     32 H4        -11.9347   12.0268    1.9123 H         1 DUP         0.0970
     33 H5        -13.6697   12.5839    4.0466 H         1 DUP         0.0345
     34 H6        -12.1226   11.6882    4.2228 H         1 DUP         0.0345
     35 H7        -14.9464   10.5910    3.8976 H         1 DUP         0.0622
     36 H8        -14.0887    9.1744    5.4985 H         1 DUP         0.2099
     37 H9        -12.3448    9.1070    3.2870 H         1 DUP         0.0650
     38 H10       -14.3159    7.7013    3.4383 H         1 DUP         0.0651
     39 H11       -13.7023    7.7905    1.7524 H         1 DUP         0.0651
     40 H12       -15.3603    7.7939   -0.4374 H         1 DUP         0.2175
@<TRIPOS>BOND
     1    1    2 2  
     2    2    3 1  
     3    2    5 am 
     4    3    4 2  
     5    4    8 1  
     6    5    6 am 
     7    6    7 2  
     8    6    8 am 
     9    8    9 1  
    10    9   10 1  
    11    9   13 1  
    12   10   11 1  
    13   11   12 1  
    14   11   14 1  
    15   13   14 1  
    16   14   15 1  
    17   15   16 1  
    18   16   17 1  
    19   17   18 ar 
    20   17   19 ar 
    21   17   20 am 
    22   20   21 1  
    23   21   22 ar 
    24   21   23 ar 
    25   21   24 1  
    26   24   25 1  
    27   25   26 ar 
    28   25   27 ar 
    29   25   28 ar 
    30    3   29 1  
    31    4   30 1  
    32    5   31 1  
    33    9   32 1  
    34   10   33 1  
    35   10   34 1  
    36   11   35 1  
    37   12   36 1  
    38   14   37 1  
    39   15   38 1  
    40   15   39 1  
    41   20   40 1  
@<TRIPOS>SUBSTRUCTURE
     1 DUP         1

