### 
### Created by X-TOOL on Fri Nov 18 14:45:46 2016
### 

@<TRIPOS>MOLECULE
2e94_ligand
   45    47     1     0     0
SMALL
GAST_HUCK


@<TRIPOS>ATOM
      1 CAM        35.3180   53.0670   10.5620 C.ar      1 MOL        -0.0144
      2 CAI        36.1370   53.5310   11.5840 C.ar      1 MOL        -0.0276
      3 CAH        36.4880   52.6820   12.6290 C.ar      1 MOL        -0.0286
      4 CAJ        36.0170   51.3740   12.6480 C.ar      1 MOL        -0.0276
      5 CAN        35.1970   50.9120   11.6240 C.ar      1 MOL        -0.0144
      6 CAV        34.8460   51.7570   10.5760 C.ar      1 MOL         0.0448
      7 CAW        34.0920   51.2750    9.5140 C.ar      1 MOL         0.0559
      8 CAS        33.0200   50.4150    9.7350 C.ar      1 MOL         0.0031
      9 CAO        34.4090   51.6590    8.2140 C.ar      1 MOL         0.0118
     10 CAK        33.6640   51.1810    7.1430 C.ar      1 MOL         0.0035
     11 CAP        32.5970   50.3180    7.3690 C.ar      1 MOL         0.0097
     12 CAX        32.2710   49.9350    8.6650 C.ar      1 MOL         0.0502
     13 CAY        31.1760   49.1050    8.8820 C.ar      1 MOL         0.0469
     14 CAT        30.9280   48.0420    8.0190 C.ar      1 MOL         0.0235
     15 CAQ        30.3640   49.2900    9.9960 C.ar      1 MOL        -0.0154
     16 CAL        29.3100   48.4230   10.2570 C.ar      1 MOL        -0.0199
     17 CAR        29.0600   47.3550    9.4030 C.ar      1 MOL         0.0091
     18 NAZ        29.8730   47.1580    8.2800 N.ar      1 MOL        -0.3461
     19 CAU        29.6790   45.9550    7.4370 C.3       1 MOL         0.0721
     20 CBA        29.2480   46.2370    5.9940 C.3       1 MOL         0.2184
     21 PBB        29.2590   44.5910    5.1110 P.3       1 MOL         0.1113
     22 OAD        29.0390   44.8840    3.5440 O.co2     1 MOL        -0.5594
     23 OAE        30.7590   44.0240    5.2380 O.co2     1 MOL        -0.5594
     24 OAA        28.2570   43.6440    5.6500 O.co2     1 MOL        -0.5594
     25 PBC        27.5660   47.0450    5.9070 P.3       1 MOL         0.1113
     26 OAF        26.4770   46.0170    6.5000 O.co2     1 MOL        -0.5594
     27 OAG        27.6150   48.2790    6.9420 O.co2     1 MOL        -0.5594
     28 OAB        27.2420   47.5040    4.5380 O.co2     1 MOL        -0.5594
     29 OAC        30.1860   47.1170    5.3640 O.3       1 MOL        -0.3585
     30 H1         35.0447   53.7291    9.7484 H         1 MOL         0.0825
     31 H2         36.5015   54.5517   11.5673 H         1 MOL         0.0726
     32 H3         37.1279   53.0400   13.4274 H         1 MOL         0.0899
     33 H4         36.2895   50.7128   13.4627 H         1 MOL         0.0726
     34 H5         34.8308   49.8919   11.6425 H         1 MOL         0.0825
     35 H6         32.7673   50.1175   10.7463 H         1 MOL         0.0745
     36 H7         35.2394   52.3328    8.0368 H         1 MOL         0.1106
     37 H8         33.9143   51.4806    6.1317 H         1 MOL         0.0785
     38 H9         32.0182   49.9431    6.5326 H         1 MOL         0.1144
     39 H10        31.5516   47.8978    7.1441 H         1 MOL         0.0939
     40 H11        30.5554   50.1191   10.6675 H         1 MOL         0.0839
     41 H12        28.6824   48.5795   11.1269 H         1 MOL         0.0755
     42 H13        28.2387   46.6772    9.6056 H         1 MOL         0.0933
     43 H14        28.9061   45.3297    7.9077 H         1 MOL         0.0496
     44 H15        30.6297   45.4025    7.4071 H         1 MOL         0.0496
     45 H16        30.1822   47.9550    5.8115 H         1 MOL         0.2133
@<TRIPOS>BOND
     1    1    2 ar 
     2    1    6 ar 
     3    2    3 ar 
     4    3    4 ar 
     5    4    5 ar 
     6    5    6 ar 
     7    6    7 1  
     8    7    8 ar 
     9    7    9 ar 
    10    8   12 ar 
    11    9   10 ar 
    12   10   11 ar 
    13   11   12 ar 
    14   12   13 1  
    15   13   14 ar 
    16   13   15 ar 
    17   14   18 ar 
    18   15   16 ar 
    19   16   17 ar 
    20   17   18 ar 
    21   18   19 1  
    22   19   20 1  
    23   20   21 1  
    24   20   25 1  
    25   20   29 1  
    26   21   22 ar 
    27   21   23 ar 
    28   21   24 ar 
    29   25   26 ar 
    30   25   27 ar 
    31   25   28 ar 
    32    1   30 1  
    33    2   31 1  
    34    3   32 1  
    35    4   33 1  
    36    5   34 1  
    37    8   35 1  
    38    9   36 1  
    39   10   37 1  
    40   11   38 1  
    41   14   39 1  
    42   15   40 1  
    43   16   41 1  
    44   17   42 1  
    45   19   43 1  
    46   19   44 1  
    47   29   45 1  
@<TRIPOS>SUBSTRUCTURE
     1 MOL         1

