### 
### Created by X-TOOL on Fri Nov 18 15:04:32 2016
### 

@<TRIPOS>MOLECULE
3exh_ligand
   42    43     1     0     0
SMALL
GAST_HUCK


@<TRIPOS>ATOM
      1 N1'       -35.5910   59.8340   18.2730 N.ar      1 TPP        -0.2938
      2 C2'       -36.3630   60.8080   17.7070 C.ar      1 TPP         0.0758
      3 CM2       -36.7100   60.7030   16.2260 C.3       1 TPP        -0.0029
      4 N3'       -36.7840   61.8670   18.5180 N.ar      1 TPP        -0.2610
      5 C4'       -36.4650   61.9530   19.8530 C.ar      1 TPP         0.1223
      6 N4'       -36.9290   62.9790   20.5490 N.pl3     1 TPP        -0.3187
      7 C5'       -35.6930   60.9360   20.3950 C.ar      1 TPP         0.0328
      8 C6'       -35.2740   59.9100   19.5860 C.ar      1 TPP         0.0074
      9 C7'       -35.2610   60.8580   21.8430 C.3       1 TPP         0.0562
     10 N3        -34.2330   61.8390   22.0630 N.2       1 TPP        -0.2745
     11 C2        -34.6120   63.0970   22.5250 C.2       1 TPP         0.1352
     12 S1        -33.3330   64.0530   22.7160 S.3       1 TPP         0.1156
     13 C5        -32.2600   62.9440   22.1900 C.2       1 TPP         0.1730
     14 C4        -32.8600   61.7300   21.8470 C.2       1 TPP         0.1309
     15 CM4       -32.0990   60.5320   21.3760 C.3       1 TPP         0.0228
     16 C6        -30.8240   63.3900   22.1410 C.3       1 TPP         0.0829
     17 C7        -30.7010   64.4200   21.0050 C.3       1 TPP         0.1135
     18 O7        -29.5640   65.2280   21.2370 O.3       1 TPP        -0.2401
     19 PA        -28.9320   66.4240   20.3610 P.3       1 TPP         0.3279
     20 O1A       -29.5110   66.5620   18.9650 O.co2     1 TPP        -0.5556
     21 O2A       -27.4460   66.3520   20.3680 O.co2     1 TPP        -0.5556
     22 O3A       -29.5460   67.7490   21.0430 O.3       1 TPP        -0.1548
     23 PB        -29.2770   68.2870   22.5540 P.3       1 TPP         0.2069
     24 O1B       -27.8410   67.9890   22.8620 O.co2     1 TPP        -0.5891
     25 O2B       -29.4030   69.7950   22.4560 O.co2     1 TPP        -0.5891
     26 O3B       -30.2160   67.7140   23.5590 O.co2     1 TPP        -0.5891
     27 H1        -36.2665   59.7866   15.8096 H         1 TPP         0.0449
     28 H2        -36.3109   61.5785   15.6929 H         1 TPP         0.0449
     29 H3        -37.8030   60.6681   16.1070 H         1 TPP         0.0449
     30 H4        -36.7041   63.0659   21.5504 H         1 TPP         0.1789
     31 H5        -37.5149   63.6904   20.0892 H         1 TPP         0.1789
     32 H6        -34.6623   59.1261   20.0178 H         1 TPP         0.0791
     33 H7        -34.8686   59.8536   22.0601 H         1 TPP         0.0563
     34 H8        -36.1194   61.0660   22.4986 H         1 TPP         0.0563
     35 H9        -35.6394   63.3942   22.7300 H         1 TPP         0.1655
     36 H10       -31.0293   60.7797   21.3104 H         1 TPP         0.0599
     37 H11       -32.4670   60.2304   20.3842 H         1 TPP         0.0599
     38 H12       -32.2409   59.7047   22.0869 H         1 TPP         0.0599
     39 H13       -30.1695   62.5290   21.9404 H         1 TPP         0.0773
     40 H14       -30.5405   63.8509   23.0987 H         1 TPP         0.0773
     41 H15       -31.6022   65.0502   20.9795 H         1 TPP         0.0687
     42 H16       -30.5918   63.8972   20.0434 H         1 TPP         0.0687
@<TRIPOS>BOND
     1    1    2 ar 
     2    1    8 ar 
     3    2    3 1  
     4    2    4 ar 
     5    4    5 ar 
     6    5    6 1  
     7    5    7 ar 
     8    7    8 ar 
     9    7    9 1  
    10    9   10 1  
    11   10   11 2  
    12   10   14 1  
    13   11   12 1  
    14   12   13 1  
    15   13   14 2  
    16   13   16 1  
    17   14   15 1  
    18   16   17 1  
    19   17   18 1  
    20   18   19 1  
    21   19   20 ar 
    22   19   21 ar 
    23   19   22 1  
    24   22   23 1  
    25   23   24 ar 
    26   23   25 ar 
    27   23   26 ar 
    28    3   27 1  
    29    3   28 1  
    30    3   29 1  
    31    6   30 1  
    32    6   31 1  
    33    8   32 1  
    34    9   33 1  
    35    9   34 1  
    36   11   35 1  
    37   15   36 1  
    38   15   37 1  
    39   15   38 1  
    40   16   39 1  
    41   16   40 1  
    42   17   41 1  
    43   17   42 1  
@<TRIPOS>SUBSTRUCTURE
     1 TPP         1

