### 
### Created by X-TOOL on Fri Nov 18 14:58:49 2016
### 

@<TRIPOS>MOLECULE
2v2v_ligand
   49    52     1     0     0
SMALL
GAST_HUCK


@<TRIPOS>ATOM
      1 OAC        12.8760  -10.0680   14.8980 O.2       1 V12        -0.3777
      2 CAV        12.9820   -9.1330   15.6950 C.2       1 V12         0.3488
      3 NAO        12.2620   -8.0190   15.4750 N.am      1 V12        -0.1924
      4 CAT        12.3070   -6.9530   16.2930 C.2       1 V12         0.0853
      5 NAA        11.5750   -5.8730   16.0340 N.2       1 V12        -0.4291
      6 CAF        13.1170   -6.9550   17.4210 C.2       1 V12         0.0019
      7 CAG        13.8800   -8.0780   17.6990 C.2       1 V12         0.0739
      8 NBD        13.8280   -9.1900   16.8310 N.am      1 V12        -0.1467
      9 CBC        14.6770  -10.3720   17.1840 C.3       1 V12         0.2108
     10 OAS        15.1950  -10.0900   18.5380 O.3       1 V12        -0.3359
     11 CBA        15.9030  -10.5500   16.2680 C.3       1 V12         0.1399
     12 OAE        15.9370  -11.8890   15.7270 O.3       1 V12        -0.3835
     13 CAZ        17.0970  -10.2900   17.1890 C.3       1 V12         0.1144
     14 OAD        18.1130  -11.2630   16.9490 O.3       1 V12        -0.3864
     15 CB0        16.5590  -10.4900   18.5940 C.3       1 V12         0.1107
     16 CAN        17.2900   -9.4750   19.4790 C.3       1 V12         0.0599
     17 NAQ        16.9700   -9.6620   20.9050 N.am      1 V12        -0.2820
     18 CAU        17.7770  -10.2890   21.7650 C.2       1 V12         0.1969
     19 OAB        18.8660  -10.7830   21.4700 O.2       1 V12        -0.3926
     20 CAL        17.2430  -10.3490   23.2020 C.3       1 V12         0.1187
     21 CA0        17.5970  -11.6650   23.9100 C.2       1 V12         0.1399
     22 NAR        17.3450  -11.9200   25.1940 N.2       1 V12        -0.3155
     23 CAY        17.7790  -13.1430   25.4770 C.ar      1 V12         0.0214
     24 CAK        17.7700  -13.9000   26.6480 C.ar      1 V12        -0.0654
     25 CAI        18.3100  -15.1860   26.6420 C.ar      1 V12        -0.0785
     26 CAH        18.8570  -15.7090   25.4690 C.ar      1 V12        -0.0765
     27 CAJ        18.8640  -14.9480   24.3000 C.ar      1 V12        -0.0421
     28 CAX        18.3220  -13.6630   24.3080 C.ar      1 V12         0.0786
     29 NAP        18.1930  -12.7300   23.3680 N.pl3     1 V12        -0.2446
     30 H1         11.6692   -7.9819   14.6705 H         1 V12         0.2412
     31 H2         11.6140   -5.0776   16.6520 H         1 V12         0.0340
     32 H3         13.1521   -6.0868   18.0775 H         1 V12         0.0330
     33 H4         14.5163   -8.1025   18.5824 H         1 V12         0.1288
     34 H5         14.0686  -11.2883   17.1702 H         1 V12         0.1013
     35 H6         15.8842   -9.8228   15.4429 H         1 V12         0.0677
     36 H7         16.6973  -11.9832   15.1652 H         1 V12         0.2101
     37 H8         17.4946   -9.2739   17.0499 H         1 V12         0.0648
     38 H9         17.7660  -12.1305   17.1207 H         1 V12         0.2100
     39 H10        16.6809  -11.5227   18.9526 H         1 V12         0.0644
     40 H11        16.9921   -8.4600   19.1774 H         1 V12         0.0546
     41 H12        18.3743   -9.5959   19.3386 H         1 V12         0.0546
     42 H13        16.1027   -9.3003   21.2471 H         1 V12         0.1854
     43 H14        16.1481  -10.2470   23.1754 H         1 V12         0.0766
     44 H15        17.6753   -9.5144   23.7735 H         1 V12         0.0766
     45 H16        17.3457  -13.4913   27.5579 H         1 V12         0.0536
     46 H17        18.3049  -15.7798   27.5489 H         1 V12         0.0516
     47 H18        19.2771  -16.7083   25.4666 H         1 V12         0.0529
     48 H19        19.2890  -15.3537   23.3890 H         1 V12         0.0542
     49 H20        18.5006  -12.8149   22.3887 H         1 V12         0.2324
@<TRIPOS>BOND
     1    1    2 2  
     2    2    3 am 
     3    2    8 am 
     4    3    4 1  
     5    4    5 2  
     6    4    6 1  
     7    6    7 2  
     8    7    8 1  
     9    8    9 1  
    10    9   10 1  
    11    9   11 1  
    12   10   15 1  
    13   11   12 1  
    14   11   13 1  
    15   13   14 1  
    16   13   15 1  
    17   15   16 1  
    18   16   17 1  
    19   17   18 am 
    20   18   19 2  
    21   18   20 1  
    22   20   21 1  
    23   21   22 2  
    24   21   29 1  
    25   22   23 1  
    26   23   24 ar 
    27   23   28 ar 
    28   24   25 ar 
    29   25   26 ar 
    30   26   27 ar 
    31   27   28 ar 
    32   28   29 1  
    33    3   30 1  
    34    5   31 1  
    35    6   32 1  
    36    7   33 1  
    37    9   34 1  
    38   11   35 1  
    39   12   36 1  
    40   13   37 1  
    41   14   38 1  
    42   15   39 1  
    43   16   40 1  
    44   16   41 1  
    45   17   42 1  
    46   20   43 1  
    47   20   44 1  
    48   24   45 1  
    49   25   46 1  
    50   26   47 1  
    51   27   48 1  
    52   29   49 1  
@<TRIPOS>SUBSTRUCTURE
     1 V12         1

