### 
### Created by X-TOOL on Fri Nov 18 16:22:51 2016
### 

@<TRIPOS>MOLECULE
3tao_ligand
   14    13     1     0     0
SMALL
GAST_HUCK


@<TRIPOS>ATOM
      1 C1        -22.2280    7.3000   12.3210 C.2       1 PGH         0.2297
      2 C2        -23.7250    7.4090   12.4640 C.3       1 PGH         0.1686
      3 N2        -21.6150    6.3080   12.9490 N.am      1 PGH        -0.1620
      4 O2        -20.3250    5.9940   12.6460 O.3       1 PGH        -0.2717
      5 O1        -21.5370    8.2480   11.5620 O.2       1 PGH        -0.3940
      6 O1P       -24.0590    8.7400   12.8080 O.3       1 PGH        -0.2560
      7 O2P       -25.5210   10.4580   13.8580 O.co2     1 PGH        -0.5536
      8 O3P       -26.1630    8.0020   14.0740 O.co2     1 PGH        -0.5536
      9 O4P       -26.4470    9.2160   11.9200 O.co2     1 PGH        -0.5536
     10 P         -25.6050    9.0890   13.1770 P.3       1 PGH         0.2041
     11 H1        -24.0708    6.7261   13.2540 H         1 PGH         0.0857
     12 H2        -24.2069    7.1422   11.5119 H         1 PGH         0.0857
     13 H3        -22.1022    5.7867   13.6496 H         1 PGH         0.2217
     14 H4        -19.7694    6.7463   12.8133 H         1 PGH         0.2490
@<TRIPOS>BOND
     1    1    2 1  
     2    1    3 am 
     3    1    5 2  
     4    2    6 1  
     5    3    4 1  
     6    6   10 1  
     7   10    7 ar 
     8   10    8 ar 
     9   10    9 ar 
    10    2   11 1  
    11    2   12 1  
    12    3   13 1  
    13    4   14 1  
@<TRIPOS>SUBSTRUCTURE
     1 PGH         1

