### 
### Created by X-TOOL on Fri Nov 18 13:15:55 2016
### 

@<TRIPOS>MOLECULE
1o7o_ligand
   36    37     1     0     0
SMALL
GAST_HUCK


@<TRIPOS>ATOM
      1 N1          2.7980   12.2760   43.2600 N.am      1 UDP        -0.1592
      2 C2          2.8580   13.2490   42.2550 C.2       1 UDP         0.3328
      3 N3          2.4690   14.5290   42.6230 N.am      1 UDP        -0.1865
      4 C4          2.0220   14.9360   43.9060 C.2       1 UDP         0.1822
      5 C5          1.9800   13.8950   44.9040 C.2       1 UDP         0.0062
      6 C6          2.3560   12.6400   44.5610 C.2       1 UDP         0.0591
      7 O2          3.2340   12.9960   41.1040 O.2       1 UDP        -0.3815
      8 O4          1.7160   16.1160   44.0590 O.2       1 UDP        -0.4124
      9 C1          3.2030   10.8640   42.9290 C.3       1 UDP         0.2059
     10 C2          4.7110   10.6500   42.7340 C.3       1 UDP         0.1387
     11 O2          4.9650    9.6070   41.8060 O.3       1 UDP        -0.3836
     12 C3          5.1590   10.3290   44.1570 C.3       1 UDP         0.1149
     13 C4          4.0310    9.4060   44.6430 C.3       1 UDP         0.1189
     14 O4          2.8340    9.9720   44.0030 O.3       1 UDP        -0.3363
     15 O3          6.4160    9.6420   44.0790 O.3       1 UDP        -0.3864
     16 C5          3.7950    9.4110   46.1830 C.3       1 UDP         0.1132
     17 O5          4.2510   10.6570   46.6870 O.3       1 UDP        -0.2436
     18 PA          5.5370   11.0880   47.4820 P.3       1 UDP         0.3276
     19 O1A         6.7130   10.5410   46.7570 O.co2     1 UDP        -0.5556
     20 O2A         5.4530   12.5810   47.6600 O.co2     1 UDP        -0.5556
     21 O3A         5.3350   10.2880   48.8260 O.3       1 UDP        -0.1548
     22 PB          6.3900   10.0760   50.0050 P.3       1 UDP         0.2069
     23 O1B         7.3570    8.9120   49.4600 O.co2     1 UDP        -0.5891
     24 O2B         5.5320    9.6400   51.1320 O.co2     1 UDP        -0.5891
     25 O3B         7.2980   11.2360   50.1610 O.co2     1 UDP        -0.5891
     26 H1          2.5076   15.2335   41.9143 H         1 UDP         0.2259
     27 H2          1.6507   14.1152   45.9184 H         1 UDP         0.0258
     28 H3          2.3175   11.8655   45.3256 H         1 UDP         0.1178
     29 H4          2.6808   10.5717   42.0061 H         1 UDP         0.0997
     30 H5          5.1979   11.5683   42.3738 H         1 UDP         0.0676
     31 H6          4.5788    9.8300   40.9671 H         1 UDP         0.2101
     32 H7          5.2486   11.2280   44.7846 H         1 UDP         0.0648
     33 H8          4.2178    8.3745   44.3097 H         1 UDP         0.0651
     34 H9          6.6497    9.3130   44.9390 H         1 UDP         0.2100
     35 H10         4.3577    8.5896   46.6506 H         1 UDP         0.0648
     36 H11         2.7230    9.2901   46.3978 H         1 UDP         0.0648
@<TRIPOS>BOND
     1    1    2 am 
     2    1    6 1  
     3    1    9 1  
     4    2    3 am 
     5    2    7 2  
     6    3    4 am 
     7    4    5 1  
     8    4    8 2  
     9    5    6 2  
    10    9   10 1  
    11    9   14 1  
    12   10   11 1  
    13   10   12 1  
    14   12   13 1  
    15   12   15 1  
    16   13   14 1  
    17   13   16 1  
    18   16   17 1  
    19   17   18 1  
    20   18   19 ar 
    21   18   20 ar 
    22   18   21 1  
    23   21   22 1  
    24   22   23 ar 
    25   22   24 ar 
    26   22   25 ar 
    27    3   26 1  
    28    5   27 1  
    29    6   28 1  
    30    9   29 1  
    31   10   30 1  
    32   11   31 1  
    33   12   32 1  
    34   13   33 1  
    35   15   34 1  
    36   16   35 1  
    37   16   36 1  
@<TRIPOS>SUBSTRUCTURE
     1 UDP         1

