### 
### Created by X-TOOL on Fri Nov 18 15:41:44 2016
### 

@<TRIPOS>MOLECULE
3djp_ligand
   32    33     1     0     0
SMALL
GAST_HUCK


@<TRIPOS>ATOM
      1 N1         29.8500   39.5820    6.6920 N.am      1 UA3        -0.1592
      2 C2         29.5960   38.5630    5.7440 C.2       1 UA3         0.3328
      3 O2         29.4950   37.3800    6.1200 O.2       1 UA3        -0.3815
      4 N3         29.4910   38.8800    4.4460 N.am      1 UA3        -0.1865
      5 C4         29.6270   40.1420    4.0100 C.2       1 UA3         0.1822
      6 O4         29.5410   40.3830    2.7830 O.2       1 UA3        -0.4124
      7 C5         29.8570   41.1750    4.9190 C.2       1 UA3         0.0062
      8 C6         29.9470   40.8560    6.2740 C.2       1 UA3         0.0591
      9 O5'        30.7980   42.6090    9.0280 O.3       1 UA3        -0.3924
     10 C5'        30.6840   41.9340   10.2880 C.3       1 UA3         0.0734
     11 C4'        30.2010   40.4960   10.1070 C.3       1 UA3         0.1182
     12 O4'        29.4660   40.4010    8.8850 O.3       1 UA3        -0.3363
     13 C3'        31.3140   39.4540   10.0530 C.3       1 UA3         0.1483
     14 O3'        31.1090   38.4530   11.0250 O.3       1 UA3        -0.2675
     15 C2'        31.1200   38.6360    8.7970 C.3       1 UA3         0.1433
     16 O2'        32.3370   38.5620    8.0840 O.3       1 UA3        -0.3833
     17 C1'        29.8890   39.2580    8.1270 C.3       1 UA3         0.2062
     18 O3P        32.2810   39.8300   12.9660 O.co2     1 UA3        -0.5537
     19 P          32.2010   38.2390   12.1790 P.3       1 UA3         0.2013
     20 O1P        33.6240   37.8620   11.5530 O.co2     1 UA3        -0.5537
     21 O2P        31.7100   36.9470   13.2920 O.co2     1 UA3        -0.5537
     22 H1         29.3059   38.1548    3.7828 H         1 UA3         0.2259
     23 H2         29.9636   42.2042    4.5794 H         1 UA3         0.0258
     24 H3         30.0980   41.6503    7.0036 H         1 UA3         0.1178
     25 H4         29.9493   42.6265    8.6015 H         1 UA3         0.2095
     26 H5         29.9659   42.4759   10.9209 H         1 UA3         0.0584
     27 H6         31.6686   41.9220   10.7782 H         1 UA3         0.0584
     28 H7         29.5398   40.2512   10.9513 H         1 UA3         0.0650
     29 H8         32.3063   39.9235   10.1236 H         1 UA3         0.0704
     30 H9         30.8581   37.6033    9.0706 H         1 UA3         0.0680
     31 H10        32.6190   39.4383    7.8492 H         1 UA3         0.2101
     32 H11        29.1067   38.4942    8.2476 H         1 UA3         0.0997
@<TRIPOS>BOND
     1    1    2 am 
     2    1    8 1  
     3   17    1 1  
     4    2    3 2  
     5    2    4 am 
     6    4    5 am 
     7    5    6 2  
     8    7    5 1  
     9    8    7 2  
    10   10    9 1  
    11   11   10 1  
    12   12   11 1  
    13   11   13 1  
    14   12   17 1  
    15   13   14 1  
    16   13   15 1  
    17   14   19 1  
    18   15   16 1  
    19   15   17 1  
    20   19   18 ar 
    21   19   20 ar 
    22   19   21 ar 
    23    4   22 1  
    24    7   23 1  
    25    8   24 1  
    26    9   25 1  
    27   10   26 1  
    28   10   27 1  
    29   11   28 1  
    30   13   29 1  
    31   15   30 1  
    32   16   31 1  
    33   17   32 1  
@<TRIPOS>SUBSTRUCTURE
     1 UA3         1

