### 
### Created by X-TOOL on Fri Nov 18 14:36:49 2016
### 

@<TRIPOS>MOLECULE
2hmu_ligand
   43    45     1     0     0
SMALL
GAST_HUCK


@<TRIPOS>ATOM
      1 PG        111.0310   47.5970   19.2990 P.3       1 ATP         0.1879
      2 O1G       109.6470   47.0510   19.2510 O.co2     1 ATP        -0.6091
      3 O2G       112.0650   46.3900   19.5740 O.co2     1 ATP        -0.6091
      4 O3G       111.1460   48.6870   20.4810 O.co2     1 ATP        -0.6091
      5 PB        112.9660   48.5530   17.6890 P.3       1 ATP         0.3553
      6 O1B       113.6670   48.5760   18.9990 O.co2     1 ATP        -0.5652
      7 O2B       113.5790   47.3620   16.7910 O.co2     1 ATP        -0.5652
      8 O3B       111.3620   48.3120   17.8740 O.3       1 ATP        -0.1546
      9 PA        112.2660   51.1210   17.5340 P.3       1 ATP         0.3266
     10 O1A       112.8760   52.4450   17.2360 O.co2     1 ATP        -0.5692
     11 O2A       112.1150   50.9840   19.1350 O.co2     1 ATP        -0.5692
     12 O3A       113.2290   49.9630   16.9270 O.3       1 ATP        -0.1171
     13 N9        109.4630   55.2030   13.4600 N.pl3     1 ATP        -0.1919
     14 C8        110.0340   56.0850   14.3490 C.2       1 ATP         0.1123
     15 N7        109.4720   57.2470   14.2470 N.2       1 ATP        -0.2958
     16 C5        108.5070   57.1950   13.2910 C.ar      1 ATP         0.1045
     17 C6        107.5800   58.1230   12.7420 C.ar      1 ATP         0.1298
     18 N6        107.5440   59.4330   13.1970 N.pl3     1 ATP        -0.3152
     19 N1        106.7350   57.7040   11.7650 N.ar      1 ATP        -0.2698
     20 C2        106.7570   56.4450   11.3120 C.ar      1 ATP         0.0533
     21 N3        107.6150   55.5440   11.8030 N.ar      1 ATP        -0.2714
     22 C4        108.4930   55.8740   12.7780 C.ar      1 ATP         0.1613
     23 O5'       110.7910   50.9690   16.8580 O.3       1 ATP        -0.2441
     24 C5'       110.4240   52.1940   16.2280 C.3       1 ATP         0.1131
     25 C4'       110.1510   51.9730   14.7360 C.3       1 ATP         0.1189
     26 O4'       109.1950   52.9790   14.2930 O.3       1 ATP        -0.3364
     27 C3'       111.4300   52.1460   13.8570 C.3       1 ATP         0.1149
     28 O3'       111.4480   51.1950   12.7780 O.3       1 ATP        -0.3864
     29 C2'       111.3280   53.5850   13.3660 C.3       1 ATP         0.1385
     30 O2'       112.0180   53.8010   12.1300 O.3       1 ATP        -0.3836
     31 C1'       109.8140   53.7980   13.2620 C.3       1 ATP         0.2010
     32 H1        110.8412   55.8410   15.0381 H         1 ATP         0.1349
     33 H2        106.8698   60.0996   12.7946 H         1 ATP         0.1820
     34 H3        108.1915   59.7390   13.9373 H         1 ATP         0.1820
     35 H4        106.0655   56.1494   10.5313 H         1 ATP         0.0996
     36 H5        111.2435   52.9188   16.3420 H         1 ATP         0.0648
     37 H6        109.5159   52.5889   16.7069 H         1 ATP         0.0648
     38 H7        109.7397   50.9634   14.5895 H         1 ATP         0.0651
     39 H8        112.3382   52.0125   14.4631 H         1 ATP         0.0648
     40 H9        110.6824   51.3242   12.2307 H         1 ATP         0.2100
     41 H10       111.7522   54.2697   14.1151 H         1 ATP         0.0676
     42 H11       111.6481   53.2386   11.4597 H         1 ATP         0.2101
     43 H12       109.4635   53.4772   12.2699 H         1 ATP         0.0996
@<TRIPOS>BOND
     1    1    2 ar 
     2    1    3 ar 
     3    1    4 ar 
     4    8    1 1  
     5    5    6 ar 
     6    5    7 ar 
     7    5    8 1  
     8   12    5 1  
     9    9   10 ar 
    10    9   11 ar 
    11    9   12 1  
    12   23    9 1  
    13   13   14 1  
    14   13   22 1  
    15   31   13 1  
    16   14   15 2  
    17   16   15 1  
    18   16   17 ar 
    19   22   16 ar 
    20   17   18 1  
    21   17   19 ar 
    22   20   19 ar 
    23   21   20 ar 
    24   22   21 ar 
    25   24   23 1  
    26   25   24 1  
    27   26   25 1  
    28   25   27 1  
    29   26   31 1  
    30   27   28 1  
    31   27   29 1  
    32   29   30 1  
    33   29   31 1  
    34   14   32 1  
    35   18   33 1  
    36   18   34 1  
    37   20   35 1  
    38   24   36 1  
    39   24   37 1  
    40   25   38 1  
    41   27   39 1  
    42   28   40 1  
    43   29   41 1  
    44   30   42 1  
    45   31   43 1  
@<TRIPOS>SUBSTRUCTURE
     1 ATP         1

