### 
### Created by X-TOOL on Fri Nov 18 13:27:36 2016
### 

@<TRIPOS>MOLECULE
1jn4_ligand
   65    69     1     0     0
SMALL
GAST_HUCK


@<TRIPOS>ATOM
      1 PA         38.2920   -4.5690   21.3040 P.3       1 MOL         0.2972
      2 O1A        39.5180   -5.4320   21.6050 O.co2     1 MOL        -0.6127
      3 O2A        38.6310   -3.1840   20.8300 O.co2     1 MOL        -0.6127
      4 O5'A       37.3170   -5.2440   20.2290 O.3       1 MOL        -0.2476
      5 PB         36.6710   -3.1780   23.3400 P.3       1 MOL         0.2974
      6 O1B        35.7040   -2.6350   22.3290 O.co2     1 MOL        -0.6127
      7 O2B        36.1520   -3.7130   24.6280 O.co2     1 MOL        -0.6127
      8 O3A        37.4460   -4.3870   22.6440 O.3       1 MOL        -0.1319
      9 N9A        36.2080   -6.0370   15.8320 N.pl3     1 MOL        -0.1919
     10 C4A        36.7040   -4.7590   15.6500 C.ar      1 MOL         0.1613
     11 N3A        37.6880   -4.1340   16.3470 N.ar      1 MOL        -0.2714
     12 C2A        37.8970   -2.8860   15.8740 C.ar      1 MOL         0.0533
     13 N1A        37.2730   -2.2500   14.8570 N.ar      1 MOL        -0.2698
     14 C6A        36.3030   -2.9170   14.1700 C.ar      1 MOL         0.1298
     15 N6A        35.7030   -2.3140   13.1430 N.pl3     1 MOL        -0.3152
     16 C5A        35.9840   -4.2330   14.5780 C.ar      1 MOL         0.1045
     17 N7A        35.0540   -5.1480   14.1080 N.2       1 MOL        -0.2958
     18 C8A        35.2170   -6.1880   14.8880 C.2       1 MOL         0.1123
     19 C5'A       36.9230   -6.6140   20.3560 C.3       1 MOL         0.1128
     20 C4'A       37.0740   -7.3420   19.0340 C.3       1 MOL         0.1189
     21 O4'A       36.1360   -6.8020   18.0740 O.3       1 MOL        -0.3364
     22 C1'A       36.6090   -7.0940   16.7740 C.3       1 MOL         0.2010
     23 C2'A       38.0860   -7.5090   16.8650 C.3       1 MOL         0.1385
     24 O2'A       38.2470   -8.8820   16.5280 O.3       1 MOL        -0.3836
     25 C3'A       38.4210   -7.2040   18.3290 C.3       1 MOL         0.1149
     26 O3'A       39.4730   -8.0630   18.8260 O.3       1 MOL        -0.3864
     27 O5'U       39.5470    1.6130   21.9190 O.3       1 MOL        -0.3924
     28 C5'U       40.1740    0.5400   22.6430 C.3       1 MOL         0.0733
     29 C4'U       39.1940   -0.0860   23.6090 C.3       1 MOL         0.1163
     30 O4'U       38.5010    0.9770   24.3210 O.3       1 MOL        -0.3386
     31 C1'U       37.0970    0.8160   24.1780 C.3       1 MOL         0.1804
     32 C2'U       36.9050   -0.0220   22.9250 C.3       1 MOL         0.0370
     33 C3'U       38.1070   -0.9510   22.9570 C.3       1 MOL         0.1281
     34 O3'U       37.8550   -2.1310   23.7490 O.3       1 MOL        -0.2441
     35 N1U        36.4630    2.1460   24.0960 N.am      1 MOL        -0.1618
     36 C6U        36.9770    3.1570   23.2860 C.2       1 MOL         0.0590
     37 C2U        35.2930    2.3490   24.8400 C.2       1 MOL         0.3327
     38 O2U        34.8100    1.5030   25.5720 O.2       1 MOL        -0.3815
     39 N3U        34.7060    3.5830   24.6720 N.am      1 MOL        -0.1865
     40 C4U        35.1330    4.6110   23.8430 C.2       1 MOL         0.1822
     41 O4U        34.3720    5.5600   23.6340 O.2       1 MOL        -0.4124
     42 C5U        36.3680    4.3450   23.1350 C.2       1 MOL         0.0062
     43 H1         38.6699   -2.3173   16.3782 H         1 MOL         0.0996
     44 H2         34.9683   -2.8059   12.6147 H         1 MOL         0.1820
     45 H3         35.9743   -1.3563   12.8780 H         1 MOL         0.1820
     46 H4         34.6199   -7.0942   14.7975 H         1 MOL         0.1349
     47 H5         35.8710   -6.6588   20.6743 H         1 MOL         0.0648
     48 H6         37.5559   -7.1029   21.1113 H         1 MOL         0.0648
     49 H7         36.8708   -8.4083   19.2118 H         1 MOL         0.0651
     50 H8         36.0771   -7.9942   16.4322 H         1 MOL         0.0996
     51 H9         38.7091   -6.9017   16.1919 H         1 MOL         0.0676
     52 H10        37.9418   -9.0269   15.6400 H         1 MOL         0.2101
     53 H11        38.7710   -6.1654   18.4234 H         1 MOL         0.0648
     54 H12        39.1957   -8.9695   18.7644 H         1 MOL         0.2100
     55 H13        39.2492    2.2752   22.5315 H         1 MOL         0.2095
     56 H14        41.0339    0.9349   23.2039 H         1 MOL         0.0584
     57 H15        40.5199   -0.2241   21.9314 H         1 MOL         0.0584
     58 H16        39.7594   -0.7072   24.3192 H         1 MOL         0.0650
     59 H17        36.6836    0.2794   25.0447 H         1 MOL         0.0970
     60 H18        36.9134    0.6065   22.0223 H         1 MOL         0.0349
     61 H19        35.9638   -0.5897   22.9678 H         1 MOL         0.0349
     62 H20        38.3968   -1.2507   21.9391 H         1 MOL         0.0686
     63 H21        37.9100    2.9767   22.7540 H         1 MOL         0.1178
     64 H22        33.8796    3.7582   25.2071 H         1 MOL         0.2259
     65 H23        36.8005    5.1034   22.4841 H         1 MOL         0.0258
@<TRIPOS>BOND
     1    1    2 ar 
     2    1    3 ar 
     3    1    4 1  
     4    8    1 1  
     5    4   19 1  
     6    5    6 ar 
     7    5    7 ar 
     8    5    8 1  
     9   34    5 1  
    10    9   10 1  
    11    9   18 1  
    12   10   11 ar 
    13   10   16 ar 
    14   11   12 ar 
    15   12   13 ar 
    16   14   13 ar 
    17   14   15 1  
    18   16   14 ar 
    19   17   16 1  
    20   18   17 2  
    21   19   20 1  
    22   20   21 1  
    23   20   25 1  
    24   21   22 1  
    25   22    9 1  
    26   23   22 1  
    27   23   24 1  
    28   25   23 1  
    29   25   26 1  
    30   28   27 1  
    31   29   28 1  
    32   29   30 1  
    33   33   29 1  
    34   31   30 1  
    35   32   31 1  
    36   33   32 1  
    37   34   33 1  
    38   31   35 1  
    39   35   36 am 
    40   35   37 am 
    41   36   42 2  
    42   37   38 2  
    43   37   39 am 
    44   39   40 am 
    45   40   41 2  
    46   40   42 1  
    47   12   43 1  
    48   15   44 1  
    49   15   45 1  
    50   18   46 1  
    51   19   47 1  
    52   19   48 1  
    53   20   49 1  
    54   22   50 1  
    55   23   51 1  
    56   24   52 1  
    57   25   53 1  
    58   26   54 1  
    59   27   55 1  
    60   28   56 1  
    61   28   57 1  
    62   29   58 1  
    63   31   59 1  
    64   32   60 1  
    65   32   61 1  
    66   33   62 1  
    67   36   63 1  
    68   39   64 1  
    69   42   65 1  
@<TRIPOS>SUBSTRUCTURE
     1 MOL         1

