### 
### Created by X-TOOL on Fri Nov 18 16:49:38 2016
### 

@<TRIPOS>MOLECULE
3upk_ligand
   64    66     1     0     0
SMALL
GAST_HUCK


@<TRIPOS>ATOM
      1 C1'        86.0700    1.0000  124.1080 C.3       1 UD1         0.2196
      2 C2'        85.9740   -0.0700  122.9490 C.3       1 UD1         0.1260
      3 C3'        84.6350   -0.8750  123.0440 C.3       1 UD1         0.1114
      4 C4'        84.6280   -1.5960  124.4090 C.3       1 UD1         0.1117
      5 C5'        84.6860   -0.4830  125.5840 C.3       1 UD1         0.1133
      6 C6'        84.7080   -1.1030  126.9920 C.3       1 UD1         0.0730
      7 C7'        87.2290    1.0760  121.0780 C.2       1 UD1         0.1734
      8 C8'        87.1370    1.8140  119.7570 C.3       1 UD1         0.0257
      9 N2'        86.0740    0.6730  121.6430 N.am      1 UD1        -0.2762
     10 O1'        85.0430    1.9140  123.7780 O.3       1 UD1        -0.2157
     11 O3'        84.6090   -1.8320  121.9860 O.3       1 UD1        -0.3867
     12 O4'        83.4630   -2.3320  124.5890 O.3       1 UD1        -0.3865
     13 O5'        85.9420    0.3410  125.3960 O.3       1 UD1        -0.3366
     14 O6'        85.8450   -1.9560  127.0740 O.3       1 UD1        -0.3924
     15 O7'        88.3070    0.8500  121.6110 O.2       1 UD1        -0.3974
     16 N1         81.5500    7.1780  129.1420 N.am      1 UD1        -0.1592
     17 C2         80.9220    8.4590  129.4980 C.2       1 UD1         0.3328
     18 N3         81.5760    9.6100  128.9700 N.am      1 UD1        -0.1865
     19 C4         82.7810    9.6120  128.1320 C.2       1 UD1         0.1822
     20 C5         83.3820    8.2890  127.7980 C.2       1 UD1         0.0062
     21 C6         82.7610    7.1620  128.2990 C.2       1 UD1         0.0591
     22 O2         79.9080    8.5830  130.1930 O.2       1 UD1        -0.3815
     23 O4         83.2390   10.6780  127.7430 O.2       1 UD1        -0.4124
     24 C1B        80.9210    5.9070  129.6490 C.3       1 UD1         0.2059
     25 C2B        80.4040    5.0650  128.4590 C.3       1 UD1         0.1387
     26 O2'        79.1050    5.4970  128.1270 O.3       1 UD1        -0.3836
     27 C3B        80.3870    3.6640  129.1070 C.3       1 UD1         0.1149
     28 C4B        81.6270    3.7480  130.0560 C.3       1 UD1         0.1189
     29 O4B        81.8640    5.1290  130.3290 O.3       1 UD1        -0.3363
     30 O3B        79.2330    3.4430  129.9570 O.3       1 UD1        -0.3864
     31 C5B        82.9060    3.1370  129.3980 C.3       1 UD1         0.1128
     32 O5B        83.1680    3.6360  128.0750 O.3       1 UD1        -0.2476
     33 PA         84.6600    3.6620  127.4820 P.3       1 UD1         0.2972
     34 O1A        85.5730    2.9090  128.3250 O.co2     1 UD1        -0.6127
     35 O2A        85.0380    5.0470  127.1370 O.co2     1 UD1        -0.6127
     36 O3A        84.3620    2.9610  126.1130 O.3       1 UD1        -0.1318
     37 PB         84.7330    3.2490  124.5910 P.3       1 UD1         0.2996
     38 O1B        85.9920    3.9430  124.6200 O.co2     1 UD1        -0.6127
     39 O2B        83.6490    4.0030  124.0090 O.co2     1 UD1        -0.6127
     40 H1         87.0413    1.5157  124.0824 H         1 UD1         0.0996
     41 H2         86.8143   -0.7749  123.0318 H         1 UD1         0.0637
     42 H3         83.7702   -0.1999  122.9643 H         1 UD1         0.0645
     43 H4         85.5003   -2.2630  124.4743 H         1 UD1         0.0647
     44 H5         83.8027    0.1671  125.4993 H         1 UD1         0.0647
     45 H6         83.7901   -1.6859  127.1586 H         1 UD1         0.0584
     46 H7         84.7807   -0.3088  127.7496 H         1 UD1         0.0584
     47 H8         88.1478    2.0808  119.4149 H         1 UD1         0.0467
     48 H9         86.5412    2.7292  119.8890 H         1 UD1         0.0467
     49 H10        86.6554    1.1676  119.0086 H         1 UD1         0.0467
     50 H11        85.2231    0.8821  121.1610 H         1 UD1         0.1857
     51 H12        85.3739   -2.3919  122.0481 H         1 UD1         0.2100
     52 H13        83.4011   -2.9954  123.9118 H         1 UD1         0.2100
     53 H14        85.8808   -2.3520  127.9368 H         1 UD1         0.2095
     54 H15        81.1764   10.4996  129.1912 H         1 UD1         0.2259
     55 H16        84.2770    8.2143  127.1821 H         1 UD1         0.0258
     56 H17        83.1954    6.1937  128.0549 H         1 UD1         0.1178
     57 H18        80.0880    6.1569  130.3225 H         1 UD1         0.0997
     58 H19        81.0648    5.1121  127.5809 H         1 UD1         0.0676
     59 H20        78.5327    5.3812  128.8764 H         1 UD1         0.2101
     60 H21        80.4732    2.8669  128.3539 H         1 UD1         0.0648
     61 H22        81.4098    3.2104  130.9908 H         1 UD1         0.0651
     62 H23        79.1467    4.1668  130.5663 H         1 UD1         0.2100
     63 H24        82.7793    2.0459  129.3392 H         1 UD1         0.0648
     64 H25        83.7710    3.3718  130.0357 H         1 UD1         0.0648
@<TRIPOS>BOND
     1    1    2 1  
     2   10    1 1  
     3    1   13 1  
     4    2    3 1  
     5    2    9 1  
     6    3    4 1  
     7    3   11 1  
     8    5    4 1  
     9    4   12 1  
    10    5    6 1  
    11   13    5 1  
    12    6   14 1  
    13    7    8 1  
    14    9    7 am 
    15    7   15 2  
    16   37   10 1  
    17   16   17 am 
    18   16   21 1  
    19   24   16 1  
    20   17   18 am 
    21   17   22 2  
    22   18   19 am 
    23   20   19 1  
    24   19   23 2  
    25   21   20 2  
    26   24   25 1  
    27   29   24 1  
    28   25   26 1  
    29   27   25 1  
    30   28   27 1  
    31   27   30 1  
    32   28   29 1  
    33   31   28 1  
    34   32   31 1  
    35   33   32 1  
    36   33   34 ar 
    37   33   35 ar 
    38   36   33 1  
    39   36   37 1  
    40   37   38 ar 
    41   37   39 ar 
    42    1   40 1  
    43    2   41 1  
    44    3   42 1  
    45    4   43 1  
    46    5   44 1  
    47    6   45 1  
    48    6   46 1  
    49    8   47 1  
    50    8   48 1  
    51    8   49 1  
    52    9   50 1  
    53   11   51 1  
    54   12   52 1  
    55   14   53 1  
    56   18   54 1  
    57   20   55 1  
    58   21   56 1  
    59   24   57 1  
    60   25   58 1  
    61   26   59 1  
    62   27   60 1  
    63   28   61 1  
    64   30   62 1  
    65   31   63 1  
    66   31   64 1  
@<TRIPOS>SUBSTRUCTURE
     1 UD1         1

