### 
### Created by X-TOOL on Fri Nov 18 16:20:40 2016
### 

@<TRIPOS>MOLECULE
2ylc_ligand
   32    33     1     0     0
SMALL
GAST_HUCK


@<TRIPOS>ATOM
      1 P          -3.0180   -3.4630  -11.9720 P.3       1 U           0.1064
      2 OP1        -2.8910   -2.8630  -13.2730 O.co2     1 U          -0.6222
      3 OP2        -2.4130   -2.8100  -10.8090 O.co2     1 U          -0.6222
      4 O5'        -2.5600   -4.9820  -12.0710 O.3       1 U          -0.2803
      5 C5'        -2.2800   -5.7070  -10.9210 C.3       1 U           0.1104
      6 C4'        -1.2920   -6.8030  -11.1900 C.3       1 U           0.1190
      7 O4'        -1.8630   -7.8100  -12.0570 O.3       1 U          -0.3362
      8 C3'        -0.0100   -6.4560  -11.9200 C.3       1 U           0.1149
      9 O3'         0.9140   -5.6510  -11.1600 O.3       1 U          -0.3864
     10 C2'         0.5050   -7.8540  -12.2480 C.3       1 U           0.1387
     11 O2'         1.1000   -8.4400  -11.0920 O.3       1 U          -0.3836
     12 C1'        -0.8240   -8.5940  -12.5740 C.3       1 U           0.2059
     13 N1         -1.0180   -8.7680  -14.0360 N.am      1 U          -0.1592
     14 C2         -0.8060  -10.0330  -14.5610 C.2       1 U           0.3328
     15 O2         -0.6040  -10.9720  -13.8330 O.2       1 U          -0.3815
     16 N3         -0.9070  -10.1390  -15.9140 N.am      1 U          -0.1865
     17 C4         -1.1410   -9.1380  -16.8080 C.2       1 U           0.1822
     18 O4         -1.1530   -9.4080  -18.0110 O.2       1 U          -0.4124
     19 C5         -1.3070   -7.8530  -16.2030 C.2       1 U           0.0062
     20 C6         -1.2370   -7.7080  -14.8800 C.2       1 U           0.0591
     21 H1         -4.0072   -3.4663  -11.7783 H         1 U           0.1780
     22 H2         -3.2124   -6.1512  -10.5424 H         1 U           0.0650
     23 H3         -1.8630   -5.0279  -10.1628 H         1 U           0.0650
     24 H4         -1.0320   -7.2442  -10.2165 H         1 U           0.0651
     25 H5         -0.2390   -5.9089  -12.8464 H         1 U           0.0648
     26 H6          1.1632   -6.1171  -10.3706 H         1 U           0.2100
     27 H7          1.2086   -7.8553  -13.0936 H         1 U           0.0676
     28 H8          1.8256   -7.8996  -10.8023 H         1 U           0.2101
     29 H9         -0.8221   -9.5829  -12.0922 H         1 U           0.0997
     30 H10        -0.7968  -11.0567  -16.2957 H         1 U           0.2259
     31 H11        -1.4928   -6.9827  -16.8306 H         1 U           0.0258
     32 H12        -1.3578   -6.7133  -14.4535 H         1 U           0.1178
@<TRIPOS>BOND
     1    1    2 ar 
     2    1    3 ar 
     3    1    4 1  
     4    4    5 1  
     5    5    6 1  
     6    6    7 1  
     7    6    8 1  
     8    7   12 1  
     9    8    9 1  
    10    8   10 1  
    11   10   11 1  
    12   10   12 1  
    13   12   13 1  
    14   13   14 am 
    15   13   20 1  
    16   14   15 2  
    17   14   16 am 
    18   16   17 am 
    19   17   18 2  
    20   17   19 1  
    21   19   20 2  
    22    1   21 1  
    23    5   22 1  
    24    5   23 1  
    25    6   24 1  
    26    8   25 1  
    27    9   26 1  
    28   10   27 1  
    29   11   28 1  
    30   12   29 1  
    31   16   30 1  
    32   19   31 1  
    33   20   32 1  
@<TRIPOS>SUBSTRUCTURE
     1 U           1

