### 
### Created by X-TOOL on Fri Nov 18 11:51:48 2016
### 

@<TRIPOS>MOLECULE
6rnt_ligand
   35    37     1     0     0
SMALL
GAST_HUCK


@<TRIPOS>ATOM
      1 PA         19.6670   13.8280    1.3770 P.3       1 MOL         0.2015
      2 O1A        20.8080   14.4870    1.9610 O.co2     1 MOL        -0.5537
      3 O2A        19.7300   12.3840    1.8180 O.co2     1 MOL        -0.5537
      4 O3A        18.3820   14.4730    1.2140 O.co2     1 MOL        -0.5537
      5 O5'        24.9010   13.9850   -1.2850 O.3       1 MOL        -0.3924
      6 C5'        24.2320   14.3790   -2.5090 C.3       1 MOL         0.0730
      7 C4'        22.8470   13.7720   -2.5210 C.3       1 MOL         0.1139
      8 O4'        22.8640   12.3600   -2.0880 O.3       1 MOL        -0.3365
      9 C3'        21.8520   14.6060   -1.6310 C.3       1 MOL         0.1193
     10 O3'        20.6810   15.0010   -2.3770 O.3       1 MOL        -0.3860
     11 C2'        21.4830   13.4520   -0.6570 C.3       1 MOL         0.1722
     12 O2'        20.1630   13.6280   -0.1880 O.3       1 MOL        -0.2647
     13 C1'        21.6040   12.1450   -1.4110 C.3       1 MOL         0.2057
     14 N9         21.7510   10.9030   -0.6290 N.pl3     1 MOL        -0.1916
     15 C8         22.5990   10.6230    0.4300 C.2       1 MOL         0.1123
     16 N7         22.6320    9.3420    0.7560 N.2       1 MOL        -0.2958
     17 C5         21.7210    8.7570   -0.1050 C.ar      1 MOL         0.1045
     18 C6         21.3360    7.3840   -0.1210 C.ar      1 MOL         0.1298
     19 N6         21.6480    6.5340    0.7520 N.pl3     1 MOL        -0.3152
     20 N1         20.5410    7.0930   -1.2200 N.ar      1 MOL        -0.2698
     21 C2         20.1580    8.0700   -2.1250 C.ar      1 MOL         0.0533
     22 N3         20.4480    9.4030   -2.0900 N.ar      1 MOL        -0.2714
     23 C4         21.3800    9.6440   -1.1130 C.ar      1 MOL         0.1613
     24 H1         24.9628   13.0377   -1.2501 H         1 MOL         0.2095
     25 H2         24.8028   14.0159   -3.3763 H         1 MOL         0.0584
     26 H3         24.1560   15.4755   -2.5530 H         1 MOL         0.0584
     27 H4         22.4794   13.8013   -3.5573 H         1 MOL         0.0647
     28 H5         22.3194   15.4732   -1.1416 H         1 MOL         0.0651
     29 H6         20.1020   15.5011   -1.8139 H         1 MOL         0.2100
     30 H7         22.1754   13.4510    0.1977 H         1 MOL         0.0732
     31 H8         20.7620   12.0301   -2.1094 H         1 MOL         0.1000
     32 H9         23.1825   11.3849    0.9447 H         1 MOL         0.1349
     33 H10        21.3253    5.5601    0.6611 H         1 MOL         0.1820
     34 H11        22.2262    6.8118    1.5579 H         1 MOL         0.1820
     35 H12        19.5554    7.7350   -2.9615 H         1 MOL         0.0996
@<TRIPOS>BOND
     1    1    2 ar 
     2    1    3 ar 
     3    1    4 ar 
     4   12    1 1  
     5    6    5 1  
     6    7    6 1  
     7    7    8 1  
     8    9    7 1  
     9    9   10 1  
    10   11    9 1  
    11   11   12 1  
    12   11   13 1  
    13   13    8 1  
    14   13   14 1  
    15   14   15 1  
    16   14   23 1  
    17   15   16 2  
    18   16   17 1  
    19   17   18 ar 
    20   17   23 ar 
    21   18   19 1  
    22   18   20 ar 
    23   20   21 ar 
    24   21   22 ar 
    25   22   23 ar 
    26    5   24 1  
    27    6   25 1  
    28    6   26 1  
    29    7   27 1  
    30    9   28 1  
    31   10   29 1  
    32   11   30 1  
    33   13   31 1  
    34   15   32 1  
    35   19   33 1  
    36   19   34 1  
    37   21   35 1  
@<TRIPOS>SUBSTRUCTURE
     1 MOL         1

