### 
### Created by X-TOOL on Fri Nov 18 17:59:13 2016
### 

@<TRIPOS>MOLECULE
5e13_ligand
   51    55     1     0     0
SMALL
GAST_HUCK


@<TRIPOS>ATOM
      1 C4         -8.9610   -9.8900   21.1400 C.ar      1 MOL         0.1613
      2 C14        -8.2350  -16.3640   19.0730 C.2       1 MOL         0.0727
      3 C5         -9.8440   -9.0680   21.7540 C.ar      1 MOL         0.1045
      4 C6         -9.3950   -7.9040   22.3000 C.ar      1 MOL         0.1298
      5 C8        -10.8910  -10.8330   21.0310 C.2       1 MOL         0.1123
      6 C13        -7.2070  -16.8310   19.7750 C.2       1 MOL         0.0684
      7 N1         -8.1040   -7.5570   22.2340 N.ar      1 MOL        -0.2698
      8 N3         -7.6570   -9.5710   21.0380 N.ar      1 MOL        -0.2714
      9 O2T        -6.9240  -18.8900   17.2980 O.2       1 MOL        -0.3777
     10 C2T        -5.8190  -18.9410   17.8490 C.2       1 MOL         0.3480
     11 N3T        -4.7470  -19.2970   17.1060 N.am      1 MOL        -0.1923
     12 C4T        -3.5090  -19.3850   17.6370 C.2       1 MOL         0.0853
     13 N4T        -2.4970  -19.7360   16.8580 N.2       1 MOL        -0.4291
     14 C5T        -3.3030  -19.1140   18.9960 C.2       1 MOL         0.0019
     15 C6T        -4.4040  -18.7540   19.7730 C.2       1 MOL         0.0728
     16 N1T        -5.6840  -18.6670   19.1690 N.am      1 MOL        -0.1691
     17 C15        -6.8560  -18.3080   19.9910 C.3       1 MOL         0.1056
     18 N12        -6.5140  -15.8370   20.3060 N.2       1 MOL        -0.2236
     19 N11        -7.1060  -14.7100   19.9090 N.2       1 MOL        -0.1015
     20 N10        -8.1680  -15.0290   19.1510 N.pl3     1 MOL        -0.1728
     21 C3'        -9.0760  -14.0220   18.5470 C.3       1 MOL         0.1452
     22 C2'        -9.8910  -13.2800   19.6070 C.3       1 MOL         0.1456
     23 O2'       -10.1380  -14.0880   20.7790 O.3       1 MOL        -0.3829
     24 C4'        -8.2760  -12.8660   17.8880 C.3       1 MOL         0.1206
     25 C5'        -8.7510  -12.3520   16.5480 C.3       1 MOL         0.0737
     26 O5'       -10.1420  -12.6340   16.3200 O.3       1 MOL        -0.3923
     27 O4'        -8.4850  -11.6740   18.7200 O.3       1 MOL        -0.3360
     28 C1'        -8.9680  -12.1200   19.9660 C.3       1 MOL         0.2017
     29 N9         -9.6160  -10.9680   20.6900 N.pl3     1 MOL        -0.1919
     30 N7        -11.0290   -9.6830   21.6710 N.2       1 MOL        -0.2958
     31 C2         -7.1920   -8.3960   21.5950 C.ar      1 MOL         0.0533
     32 N6        -10.2200   -7.0460   22.9430 N.pl3     1 MOL        -0.3152
     33 H1         -8.9825  -16.9504   18.5407 H         1 MOL         0.0900
     34 H2        -11.6869  -11.5458   20.8205 H         1 MOL         0.1349
     35 H3         -4.8748  -19.5009   16.1354 H         1 MOL         0.2412
     36 H4         -1.5671  -19.8058   17.2406 H         1 MOL         0.0340
     37 H5         -2.3086  -19.1827   19.4346 H         1 MOL         0.0330
     38 H6         -4.2817  -18.5416   20.8341 H         1 MOL         0.1288
     39 H7         -7.7124  -18.9337   19.6993 H         1 MOL         0.0748
     40 H8         -6.6232  -18.4769   21.0527 H         1 MOL         0.0748
     41 H9         -9.7335  -14.5175   17.8175 H         1 MOL         0.0739
     42 H10       -10.8473  -12.9256   19.1948 H         1 MOL         0.0684
     43 H11        -9.3092  -14.3398   21.1691 H         1 MOL         0.2102
     44 H12        -7.2165  -13.1554   17.8277 H         1 MOL         0.0654
     45 H13        -8.1580  -12.8304   15.7547 H         1 MOL         0.0584
     46 H14        -8.6000  -11.2630   16.5126 H         1 MOL         0.0584
     47 H15       -10.6632  -12.2192   16.9973 H         1 MOL         0.2095
     48 H16        -8.1419  -12.4946   20.5882 H         1 MOL         0.0996
     49 H17        -6.1422   -8.1321   21.5368 H         1 MOL         0.0996
     50 H18        -9.8455   -6.1743   23.3439 H         1 MOL         0.1820
     51 H19       -11.2227   -7.2645   23.0316 H         1 MOL         0.1820
@<TRIPOS>BOND
     1    1    3 ar 
     2    1    8 ar 
     3   29    1 1  
     4    2    6 2  
     5   20    2 1  
     6    3    4 ar 
     7   30    3 1  
     8    4    7 ar 
     9    4   32 1  
    10   29    5 1  
    11    5   30 2  
    12    6   17 1  
    13   18    6 1  
    14   31    7 ar 
    15    8   31 ar 
    16   10    9 2  
    17   10   11 am 
    18   16   10 am 
    19   11   12 1  
    20   12   13 2  
    21   14   12 1  
    22   15   14 2  
    23   16   15 1  
    24   17   16 1  
    25   19   18 2  
    26   20   19 1  
    27   21   20 1  
    28   22   21 1  
    29   24   21 1  
    30   22   23 1  
    31   28   22 1  
    32   24   25 1  
    33   27   24 1  
    34   25   26 1  
    35   28   27 1  
    36   28   29 1  
    37    2   33 1  
    38    5   34 1  
    39   11   35 1  
    40   13   36 1  
    41   14   37 1  
    42   15   38 1  
    43   17   39 1  
    44   17   40 1  
    45   21   41 1  
    46   22   42 1  
    47   23   43 1  
    48   24   44 1  
    49   25   45 1  
    50   25   46 1  
    51   26   47 1  
    52   28   48 1  
    53   31   49 1  
    54   32   50 1  
    55   32   51 1  
@<TRIPOS>SUBSTRUCTURE
     1 MOL         1

