#	Name:			5edd_ligand
#	Creating user name:	wangrx
#	Creation time:		Thu Dec 14 16:58:04 2017

#	Modifying user name:	wangrx
#	Modification time:	Thu Dec 14 16:58:29 2017

@<TRIPOS>MOLECULE
5edd_ligand
   40    41     1     0     0
SMALL
GAST_HUCK


@<TRIPOS>ATOM
      1 O4         21.5640   -7.0770    1.0060 O.2       1 DUP        -0.4124 
      2 C4         20.3760   -6.6920    0.5090 C.2       1 DUP         0.1822 
      3 C5         19.5110   -7.6380   -0.0090 C.2       1 DUP         0.0062 
      4 C6         18.3100   -7.2420   -0.5560 C.2       1 DUP         0.0590 
      5 N3         20.0410   -5.3920    0.4560 N.am      1 DUP        -0.1865 
      6 C2         18.8870   -5.0240   -0.1330 C.2       1 DUP         0.3327 
      7 O2         18.5840   -3.7020   -0.1940 O.2       1 DUP        -0.3815 
      8 N1         18.0200   -5.9430   -0.6130 N.am      1 DUP        -0.1618 
      9 C1'        16.7520   -5.4940   -1.2190 C.3       1 DUP         0.1800 
     10 C2'        16.8830   -5.5930   -2.7450 C.3       1 DUP         0.0316 
     11 C3'        16.1440   -6.8680   -3.1100 C.3       1 DUP         0.0890 
     12 O3'        15.6840   -6.8930   -4.4670 O.3       1 DUP        -0.3889 
     13 O4'        15.6610   -6.3380   -0.8750 O.3       1 DUP        -0.3386 
     14 C4'        15.0510   -6.8740   -2.0450 C.3       1 DUP         0.1165 
     15 C5'        14.4950   -8.2390   -1.6830 C.3       1 DUP         0.1127 
     16 O5'        15.5920   -9.0560   -1.1880 O.3       1 DUP        -0.2572 
     17 PA         15.2300  -10.5390   -0.6600 P.3       1 DUP         0.2200 
     18 O1A        14.3820  -11.1440   -1.7280 O.co2     1 DUP        -0.6068 
     19 O2A        16.5690  -11.1970   -0.3030 O.co2     1 DUP        -0.6068 
     20 N3A        14.3170  -10.2430    0.6950 N.am      1 DUP        -0.1663 
     21 PB         12.8130  -10.8340    1.1100 P.3       1 DUP         0.2925 
     22 O1B        12.6390  -12.1700    0.3720 O.co2     1 DUP        -0.5445 
     23 O2B        12.7860  -10.8390    2.6480 O.co2     1 DUP        -0.5445 
     24 O3B        11.6830   -9.7770    0.6040 O.3       1 DUP        -0.1626 
     25 PG         10.7740   -9.8000   -0.7670 P.3       1 DUP         0.2073 
     26 O2G        11.5120  -10.5800   -1.8440 O.co2     1 DUP        -0.5889 
     27 O1G         9.5270  -10.4800   -0.2540 O.co2     1 DUP        -0.5889 
     28 O3G        10.7580   -8.2900   -1.0620 O.co2     1 DUP        -0.5889 
     29 H1         19.7782   -8.6934    0.0153 H         1 DUP         0.0258 
     30 H2         17.6069   -7.9813   -0.9368 H         1 DUP         0.1178 
     31 H3         20.6456   -4.7009    0.8520 H         1 DUP         0.2259 
     32 H4         16.5420   -4.4596   -0.9093 H         1 DUP         0.0970 
     33 H5         17.9405   -5.6587   -3.0407 H         1 DUP         0.0345 
     34 H6         16.4195   -4.7224   -3.2320 H         1 DUP         0.0345 
     35 H7         16.8010   -7.7394   -2.9722 H         1 DUP         0.0622 
     36 H8         15.2321   -7.7122   -4.6320 H         1 DUP         0.2099 
     37 H9         14.2212   -6.2339   -2.3792 H         1 DUP         0.0650 
     38 H10        14.0518   -8.7093   -2.5732 H         1 DUP         0.0650 
     39 H11        13.7267   -8.1339   -0.9029 H         1 DUP         0.0650 
     40 H12        14.7288   -9.6193    1.3594 H         1 DUP         0.1924 
@<TRIPOS>BOND
     1    1    2 2    
     2    2    3 1    
     3    2    5 am   
     4    3    4 2    
     5    4    8 am   
     6    5    6 am   
     7    6    7 2    
     8    6    8 am   
     9    8    9 1    
    10    9   10 1    
    11    9   13 1    
    12   10   11 1    
    13   11   12 1    
    14   11   14 1    
    15   13   14 1    
    16   14   15 1    
    17   15   16 1    
    18   16   17 1    
    19   17   18 ar   
    20   17   19 ar   
    21   17   20 am   
    22   20   21 am   
    23   21   22 ar   
    24   21   23 ar   
    25   21   24 1    
    26   24   25 1    
    27   25   26 ar   
    28   25   27 ar   
    29   25   28 ar   
    30    3   29 1    
    31    4   30 1    
    32    5   31 1    
    33    9   32 1    
    34   10   33 1    
    35   10   34 1    
    36   11   35 1    
    37   12   36 1    
    38   14   37 1    
    39   15   38 1    
    40   15   39 1    
    41   20   40 1    
@<TRIPOS>SUBSTRUCTURE
     1 DUP         1 PERM              0 ****  ****    0 ROOT 
