### 
### Created by X-TOOL on Fri Nov 18 17:24:56 2016
### 

@<TRIPOS>MOLECULE
4n5d_ligand
   24    25     1     0     0
SMALL
GAST_HUCK


@<TRIPOS>ATOM
      1 O         -28.5910  -28.5110    4.6200 O.2       1 2FQ        -0.3482
      2 C6        -27.6130  -28.2170    3.9440 C.2       1 2FQ         0.2851
      3 C5        -27.7340  -27.9420    2.4770 C.2       1 2FQ         0.1251
      4 N3        -28.9680  -28.0520    1.9360 N.2       1 2FQ        -0.3397
      5 C4        -26.6360  -27.6060    1.7500 C.3       1 2FQ         0.0580
      6 N1        -26.3600  -28.1230    4.5170 N.am      1 2FQ        -0.1930
      7 C8        -26.2570  -28.4080    5.9480 C.3       1 2FQ         0.0507
      8 C7        -25.2320  -27.7840    3.8010 C.ar      1 2FQ         0.1597
      9 C3        -25.3610  -27.5210    2.4100 C.ar      1 2FQ         0.0442
     10 C2        -24.1740  -27.1770    1.7590 C.ar      1 2FQ         0.0077
     11 N         -22.9880  -27.0920    2.3510 N.ar      1 2FQ        -0.2962
     12 N2        -24.0390  -27.7020    4.4000 N.ar      1 2FQ        -0.2592
     13 C1        -22.9670  -27.3680    3.6700 C.ar      1 2FQ         0.0731
     14 C         -21.6530  -27.3100    4.3600 C.3       1 2FQ        -0.0033
     15 H1        -29.1046  -27.8775    0.9527 H         1 2FQ         0.1162
     16 H2        -26.8342  -26.6202    1.3040 H         1 2FQ         0.0683
     17 H3        -26.5361  -28.3562    0.9518 H         1 2FQ         0.0683
     18 H4        -27.2522  -28.6575    6.3447 H         1 2FQ         0.0566
     19 H5        -25.8652  -27.5231    6.4709 H         1 2FQ         0.0566
     20 H6        -25.5763  -29.2578    6.1046 H         1 2FQ         0.0566
     21 H7        -24.2242  -26.9647    0.6972 H         1 2FQ         0.0787
     22 H8        -20.8726  -27.0248    3.6391 H         1 2FQ         0.0449
     23 H9        -21.4175  -28.2974    4.7838 H         1 2FQ         0.0449
     24 H10       -21.6957  -26.5648    5.1680 H         1 2FQ         0.0449
@<TRIPOS>BOND
     1    1    2 2  
     2    2    3 1  
     3    2    6 am 
     4    3    4 2  
     5    3    5 1  
     6    5    9 1  
     7    6    7 1  
     8    6    8 1  
     9    8    9 ar 
    10    8   12 ar 
    11    9   10 ar 
    12   10   11 ar 
    13   11   13 ar 
    14   12   13 ar 
    15   13   14 1  
    16    4   15 1  
    17    5   16 1  
    18    5   17 1  
    19    7   18 1  
    20    7   19 1  
    21    7   20 1  
    22   10   21 1  
    23   14   22 1  
    24   14   23 1  
    25   14   24 1  
@<TRIPOS>SUBSTRUCTURE
     1 2FQ         1

