### 
### Created by X-TOOL on Fri Nov 18 17:58:44 2016
### 

@<TRIPOS>MOLECULE
4r73_ligand
   27    27     1     0     0
SMALL
GAST_HUCK


@<TRIPOS>ATOM
      1 C1         10.9640   25.0470   49.1500 C.3       1 G6P         0.1854
      2 C2         10.6790   23.9720   48.2500 C.3       1 G6P         0.1339
      3 C3         11.7440   22.9050   48.3600 C.3       1 G6P         0.1141
      4 C4         13.1310   23.4780   48.2180 C.3       1 G6P         0.1122
      5 C5         13.2680   24.5670   49.2560 C.3       1 G6P         0.1176
      6 C6         14.5400   25.3500   49.1190 C.3       1 G6P         0.1071
      7 O1         10.0340   26.0280   49.2270 O.3       1 G6P        -0.3649
      8 O2          9.3630   23.4020   48.4800 O.3       1 G6P        -0.3841
      9 O3         11.4470   22.0100   47.3310 O.3       1 G6P        -0.3864
     10 O4         14.0440   22.4480   48.3910 O.3       1 G6P        -0.3865
     11 O5         12.2360   25.4640   49.0820 O.3       1 G6P        -0.3404
     12 O6         14.5500   26.3620   50.0680 O.3       1 G6P        -0.2734
     13 P          15.6360   27.5910   50.0820 P.3       1 G6P         0.2008
     14 O1P        15.1080   28.5280   51.1150 O.co2     1 G6P        -0.5537
     15 O2P        16.9430   27.0270   50.3770 O.co2     1 G6P        -0.5537
     16 O3P        15.6480   28.1650   48.7680 O.co2     1 G6P        -0.5537
     17 H1         10.9019   24.5721   50.1403 H         1 G6P         0.0935
     18 H2         10.6983   24.3735   47.2261 H         1 G6P         0.0671
     19 H3         11.6713   22.3986   49.3338 H         1 G6P         0.0648
     20 H4         13.2637   23.9118   47.2159 H         1 G6P         0.0647
     21 H5         13.2205   24.1170   50.2586 H         1 G6P         0.0650
     22 H6         14.5971   25.7881   48.1116 H         1 G6P         0.0639
     23 H7         15.4017   24.6853   49.2792 H         1 G6P         0.0639
     24 H8         10.0950   26.5817   48.4574 H         1 G6P         0.2126
     25 H9          8.7063   24.0847   48.4074 H         1 G6P         0.2101
     26 H10        11.5011   22.4599   46.4960 H         1 G6P         0.2100
     27 H11        13.9138   21.7939   47.7145 H         1 G6P         0.2100
@<TRIPOS>BOND
     1    1    2 1  
     2    1    7 1  
     3    1   11 1  
     4    2    3 1  
     5    2    8 1  
     6    3    4 1  
     7    3    9 1  
     8    4    5 1  
     9    4   10 1  
    10    5    6 1  
    11    5   11 1  
    12    6   12 1  
    13   12   13 1  
    14   13   14 ar 
    15   13   15 ar 
    16   13   16 ar 
    17    1   17 1  
    18    2   18 1  
    19    3   19 1  
    20    4   20 1  
    21    5   21 1  
    22    6   22 1  
    23    6   23 1  
    24    7   24 1  
    25    8   25 1  
    26    9   26 1  
    27   10   27 1  
@<TRIPOS>SUBSTRUCTURE
     1 G6P         1

