### 
### Created by X-TOOL on Fri Nov 18 14:57:11 2016
### 

@<TRIPOS>MOLECULE
2qta_ligand
   42    43     1     0     0
SMALL
GAST_HUCK


@<TRIPOS>ATOM
      1 N1'        26.9500  -36.5110    7.8880 N.ar      1 TDP        -0.2938
      2 C2'        27.5920  -37.4090    8.7320 C.ar      1 TDP         0.0758
      3 C2A        27.5650  -38.8490    8.3470 C.3       1 TDP        -0.0029
      4 N3'        28.2270  -37.0270    9.8540 N.ar      1 TDP        -0.2610
      5 C4'        28.2540  -35.6670   10.1940 C.ar      1 TDP         0.1223
      6 N4'        28.8890  -35.3500   11.3120 N.pl3     1 TDP        -0.3187
      7 C5'        27.5850  -34.6700    9.3250 C.ar      1 TDP         0.0328
      8 C6'        26.9510  -35.1460    8.1970 C.ar      1 TDP         0.0074
      9 C35        27.6180  -33.1630    9.5770 C.3       1 TDP         0.0562
     10 N3         26.8960  -32.7000   10.8440 N.2       1 TDP        -0.2745
     11 C2         27.5280  -32.1770   11.9050 C.2       1 TDP         0.1352
     12 S1         26.4690  -31.5970   13.0920 S.3       1 TDP         0.1156
     13 C5         25.0930  -32.0760   12.1330 C.2       1 TDP         0.1730
     14 C4         25.4850  -32.6600   10.9490 C.2       1 TDP         0.1309
     15 C4A        24.6060  -33.2140    9.8630 C.3       1 TDP         0.0228
     16 C5A        23.7050  -31.9150   12.6510 C.3       1 TDP         0.0829
     17 C5B        23.4860  -32.8290   13.8080 C.3       1 TDP         0.1135
     18 O5G        22.0960  -32.7630   14.1960 O.3       1 TDP        -0.2401
     19 P1         21.5370  -33.6990   15.3700 P.3       1 TDP         0.3279
     20 O11        22.3630  -33.1580   16.6400 O.3       1 TDP        -0.1548
     21 O12        20.1260  -33.3930   15.5270 O.co2     1 TDP        -0.5556
     22 O13        21.9290  -35.1220   15.1090 O.co2     1 TDP        -0.5556
     23 P2         22.3020  -31.8550   17.5680 P.3       1 TDP         0.2069
     24 O21        22.2570  -32.3960   19.0160 O.co2     1 TDP        -0.5891
     25 O22        23.5540  -31.0910   17.3600 O.co2     1 TDP        -0.5891
     26 O23        21.0550  -31.1370   17.2690 O.co2     1 TDP        -0.5891
     27 H1         27.0042  -38.9670    7.4081 H         1 TDP         0.0449
     28 H2         27.0764  -39.4319    9.1416 H         1 TDP         0.0449
     29 H3         28.5944  -39.2105    8.2071 H         1 TDP         0.0449
     30 H4         28.9419  -34.3664   11.6131 H         1 TDP         0.1789
     31 H5         29.3300  -36.0870   11.8805 H         1 TDP         0.1789
     32 H6         26.4443  -34.4506    7.5377 H         1 TDP         0.0791
     33 H7         27.1496  -32.6634    8.7162 H         1 TDP         0.0563
     34 H8         28.6708  -32.8532    9.6525 H         1 TDP         0.0563
     35 H9         28.6123  -32.1301   11.9941 H         1 TDP         0.1655
     36 H10        23.5504  -33.0828   10.1431 H         1 TDP         0.0599
     37 H11        24.8194  -34.2847    9.7290 H         1 TDP         0.0599
     38 H12        24.8048  -32.6799    8.9221 H         1 TDP         0.0599
     39 H13        22.9875  -32.1580   11.8534 H         1 TDP         0.0773
     40 H14        23.5549  -30.8745   12.9747 H         1 TDP         0.0773
     41 H15        24.1204  -32.5173   14.6508 H         1 TDP         0.0687
     42 H16        23.7407  -33.8593   13.5188 H         1 TDP         0.0687
@<TRIPOS>BOND
     1    1    2 ar 
     2    1    8 ar 
     3    2    3 1  
     4    2    4 ar 
     5    4    5 ar 
     6    5    6 1  
     7    5    7 ar 
     8    7    8 ar 
     9    7    9 1  
    10    9   10 1  
    11   10   11 2  
    12   10   14 1  
    13   11   12 1  
    14   12   13 1  
    15   13   14 2  
    16   13   16 1  
    17   14   15 1  
    18   16   17 1  
    19   17   18 1  
    20   18   19 1  
    21   19   20 1  
    22   19   21 ar 
    23   19   22 ar 
    24   20   23 1  
    25   23   24 ar 
    26   23   25 ar 
    27   23   26 ar 
    28    3   27 1  
    29    3   28 1  
    30    3   29 1  
    31    6   30 1  
    32    6   31 1  
    33    8   32 1  
    34    9   33 1  
    35    9   34 1  
    36   11   35 1  
    37   15   36 1  
    38   15   37 1  
    39   15   38 1  
    40   16   39 1  
    41   16   40 1  
    42   17   41 1  
    43   17   42 1  
@<TRIPOS>SUBSTRUCTURE
     1 TDP         1

