### 
### Created by X-TOOL on Fri Nov 18 17:28:46 2016
### 

@<TRIPOS>MOLECULE
3zhx_ligand
   39    40     1     0     0
SMALL
GAST_HUCK


@<TRIPOS>ATOM
      1 C7         22.2210   22.0200  -18.5350 C.ar      1 FM6        -0.0443
      2 C8         21.8680   22.7690  -19.6570 C.ar      1 FM6         0.0478
      3 CL1        23.0870   23.7950  -20.3410 Cl        1 FM6        -0.0718
      4 C9         20.5620   22.6690  -20.1810 C.ar      1 FM6         0.0469
      5 CL2        20.0370   23.5660  -21.5660 Cl        1 FM6        -0.0764
      6 C10        19.6240   21.8240  -19.5870 C.ar      1 FM6        -0.0541
      7 C11        19.9820   21.0820  -18.4660 C.ar      1 FM6        -0.0580
      8 C6         21.2790   21.1720  -17.9540 C.ar      1 FM6        -0.0229
      9 C4         21.6120   20.3670  -16.6960 C.3       1 FM6         0.0661
     10 PA1        22.7770   18.9890  -17.0080 P.3       1 FM6         0.0732
     11 OP1        23.0020   18.2500  -15.7050 O.co2     1 FM6        -0.5605
     12 OP3        22.1500   18.0650  -18.0260 O.co2     1 FM6        -0.5605
     13 OP2        24.1030   19.4950  -17.5150 O.co2     1 FM6        -0.5605
     14 C3         22.0840   21.3550  -15.6120 C.3       1 FM6        -0.0021
     15 C2         20.9850   22.4240  -15.3110 C.3       1 FM6         0.0658
     16 N1         19.7230   21.7080  -15.0130 N.am      1 FM6        -0.1495
     17 O2         19.8690   20.6270  -14.2200 O.3       1 FM6        -0.2693
     18 C1         18.4790   21.9940  -15.4530 C.2       1 FM6         0.2302
     19 O1         17.5050   21.3130  -15.1470 O.2       1 FM6        -0.3847
     20 C12        18.2190   23.2310  -16.3270 C.ar      1 FM6         0.0517
     21 C17        18.6720   24.4930  -15.9150 C.ar      1 FM6        -0.0420
     22 C16        18.4120   25.6210  -16.6970 C.ar      1 FM6        -0.0563
     23 C15        17.6650   25.4880  -17.8710 C.ar      1 FM6        -0.0576
     24 C14        17.1910   24.2370  -18.2680 C.ar      1 FM6        -0.0563
     25 C13        17.4540   23.1090  -17.4900 C.ar      1 FM6        -0.0420
     26 H1         23.2188   22.0963  -18.1183 H         1 FM6         0.0563
     27 H2         18.6232   21.7462  -19.9962 H         1 FM6         0.0606
     28 H3         19.2549   20.4342  -17.9898 H         1 FM6         0.0559
     29 H4         20.6782   19.9084  -16.3386 H         1 FM6         0.0651
     30 H5         22.9945   21.8639  -15.9611 H         1 FM6         0.0324
     31 H6         22.3059   20.7980  -14.6898 H         1 FM6         0.0324
     32 H7         20.8473   23.0753  -16.1867 H         1 FM6         0.0553
     33 H8         21.2829   23.0326  -14.4445 H         1 FM6         0.0553
     34 H9         19.0206   20.2246  -14.0758 H         1 FM6         0.2494
     35 H10        19.2249   24.5932  -14.9880 H         1 FM6         0.0669
     36 H11        18.7868   26.5924  -16.3956 H         1 FM6         0.0629
     37 H12        17.4527   26.3617  -18.4765 H         1 FM6         0.0652
     38 H13        16.6173   24.1414  -19.1827 H         1 FM6         0.0629
     39 H14        17.0662   22.1412  -17.7868 H         1 FM6         0.0669
@<TRIPOS>BOND
     1    1    2 ar 
     2    1    8 ar 
     3    2    3 1  
     4    2    4 ar 
     5    4    5 1  
     6    4    6 ar 
     7    6    7 ar 
     8    7    8 ar 
     9    8    9 1  
    10    9   10 1  
    11    9   14 1  
    12   10   11 ar 
    13   10   12 ar 
    14   10   13 ar 
    15   14   15 1  
    16   15   16 1  
    17   16   17 1  
    18   16   18 am 
    19   18   19 2  
    20   18   20 1  
    21   20   21 ar 
    22   20   25 ar 
    23   21   22 ar 
    24   22   23 ar 
    25   23   24 ar 
    26   24   25 ar 
    27    1   26 1  
    28    6   27 1  
    29    7   28 1  
    30    9   29 1  
    31   14   30 1  
    32   14   31 1  
    33   15   32 1  
    34   15   33 1  
    35   17   34 1  
    36   21   35 1  
    37   22   36 1  
    38   23   37 1  
    39   24   38 1  
    40   25   39 1  
@<TRIPOS>SUBSTRUCTURE
     1 FM6         1

