### 
### Created by X-TOOL on Fri Nov 18 17:49:20 2016
### 

@<TRIPOS>MOLECULE
4uoh_ligand
   39    41     1     0     0
SMALL
GAST_HUCK


@<TRIPOS>ATOM
      1 PB         10.6210  -19.1180    4.7320 P.3       1 ADP         0.2069
      2 O1B        10.6230  -18.5270    5.9820 O.co2     1 ADP        -0.5891
      3 O2B         9.6610  -20.1480    4.5990 O.co2     1 ADP        -0.5891
      4 O3B        11.9270  -19.5270    4.3290 O.co2     1 ADP        -0.5891
      5 PA         11.1080  -16.8560    3.1950 P.3       1 ADP         0.3276
      6 O1A        10.5880  -16.5900    1.8970 O.co2     1 ADP        -0.5556
      7 O2A        12.5200  -17.0960    3.3480 O.co2     1 ADP        -0.5556
      8 O3A        10.2480  -17.9940    3.7820 O.3       1 ADP        -0.1548
      9 O5'        10.8130  -15.6090    3.9860 O.3       1 ADP        -0.2436
     10 C5'        11.2870  -15.3090    5.2370 C.3       1 ADP         0.1132
     11 C4'        10.1990  -14.7960    6.1540 C.3       1 ADP         0.1189
     12 O4'         9.7200  -13.5740    5.6950 O.3       1 ADP        -0.3364
     13 C3'         9.0150  -15.7170    6.3090 C.3       1 ADP         0.1149
     14 O3'         9.1740  -16.7490    7.2140 O.3       1 ADP        -0.3864
     15 C2'         7.9690  -14.7580    6.7160 C.3       1 ADP         0.1385
     16 O2'         7.9590  -14.6030    8.0860 O.3       1 ADP        -0.3836
     17 C1'         8.4050  -13.4500    6.1160 C.3       1 ADP         0.2010
     18 N9          7.5670  -13.2540    4.9620 N.pl3     1 ADP        -0.1919
     19 C8          7.5550  -14.0310    3.8980 C.2       1 ADP         0.1123
     20 N7          6.6780  -13.6190    3.0130 N.2       1 ADP        -0.2958
     21 C5          6.1200  -12.5590    3.5250 C.ar      1 ADP         0.1045
     22 C6          5.0790  -11.6570    3.0890 C.ar      1 ADP         0.1298
     23 N6          4.4990  -11.8210    1.9080 N.pl3     1 ADP        -0.3152
     24 N1          4.7710  -10.6960    3.8970 N.ar      1 ADP        -0.2698
     25 C2          5.3640  -10.5810    5.0680 C.ar      1 ADP         0.0533
     26 N3          6.3110  -11.3460    5.5450 N.ar      1 ADP        -0.2714
     27 C4          6.7020  -12.3380    4.8230 C.ar      1 ADP         0.1613
     28 H          12.0653  -14.5372    5.1450 H         1 ADP         0.0648
     29 H          11.7222  -16.2179    5.6780 H         1 ADP         0.0648
     30 H          10.6477  -14.6514    7.1478 H         1 ADP         0.0651
     31 H           8.7645  -16.1664    5.3368 H         1 ADP         0.0648
     32 H           9.9036  -17.2948    6.9452 H         1 ADP         0.2100
     33 H           6.9783  -15.0680    6.3520 H         1 ADP         0.0676
     34 H           7.7852  -15.4416    8.4972 H         1 ADP         0.2101
     35 H           8.3002  -12.6231    6.8338 H         1 ADP         0.0996
     36 H           8.1923  -14.9046    3.7693 H         1 ADP         0.1349
     37 H           3.7576  -11.1739    1.6041 H         1 ADP         0.1820
     38 H           4.7899  -12.5955    1.2945 H         1 ADP         0.1820
     39 H           5.0320   -9.7670    5.7023 H         1 ADP         0.0996
@<TRIPOS>BOND
     1    1    2 ar 
     2    1    3 ar 
     3    1    4 ar 
     4    8    1 1  
     5    5    6 ar 
     6    5    7 ar 
     7    5    8 1  
     8    5    9 1  
     9    9   10 1  
    10   10   11 1  
    11   11   12 1  
    12   11   13 1  
    13   12   17 1  
    14   13   14 1  
    15   13   15 1  
    16   15   16 1  
    17   15   17 1  
    18   17   18 1  
    19   18   19 1  
    20   18   27 1  
    21   19   20 2  
    22   20   21 1  
    23   21   22 ar 
    24   21   27 ar 
    25   22   23 1  
    26   22   24 ar 
    27   24   25 ar 
    28   25   26 ar 
    29   26   27 ar 
    30   10   28 1  
    31   10   29 1  
    32   11   30 1  
    33   13   31 1  
    34   14   32 1  
    35   15   33 1  
    36   16   34 1  
    37   17   35 1  
    38   19   36 1  
    39   23   37 1  
    40   23   38 1  
    41   25   39 1  
@<TRIPOS>SUBSTRUCTURE
     1 ADP         1

