### 
### Created by X-TOOL on Fri Nov 18 15:53:30 2016
### 

@<TRIPOS>MOLECULE
3g1d_ligand
   32    33     1     0     0
SMALL
GAST_HUCK


@<TRIPOS>ATOM
      1 OP3        25.8690   -1.2150    7.9160 O.co2     1 U          -0.5537
      2 P          24.8370   -2.2650    8.5560 P.3       1 U           0.2008
      3 OP1        24.1130   -3.0850    7.5190 O.co2     1 U          -0.5537
      4 OP2        25.6110   -3.1380    9.5060 O.co2     1 U          -0.5537
      5 O5'        23.8220   -1.4830    9.4760 O.3       1 U          -0.2734
      6 C5'        22.6990   -0.7620    8.9500 C.3       1 U           0.1072
      7 C4'        22.0560   -0.0450   10.1200 C.3       1 U           0.1182
      8 O4'        20.9880    0.8080    9.6530 O.3       1 U          -0.3363
      9 C3'        21.3870   -0.8830   11.2020 C.3       1 U           0.1149
     10 O3'        21.4580   -0.2270   12.4690 O.3       1 U          -0.3864
     11 C2'        19.9720   -1.0020   10.7350 C.3       1 U           0.1387
     12 O2'        19.0570   -1.3360   11.7760 O.3       1 U          -0.3836
     13 C1'        19.7290    0.3440   10.0990 C.3       1 U           0.2059
     14 N1         18.7970    0.4210    8.9570 N.am      1 U          -0.1592
     15 C2         18.9500   -0.3900    7.7960 C.2       1 U           0.3328
     16 O2         19.9060   -1.1160    7.6390 O.2       1 U          -0.3815
     17 N3         17.9290   -0.2710    6.8730 N.am      1 U          -0.1865
     18 C4         16.8550    0.6420    6.8880 C.2       1 U           0.1822
     19 O4         16.1160    0.6690    5.9230 O.2       1 U          -0.4124
     20 C5         16.7710    1.4590    8.0830 C.2       1 U           0.0062
     21 C6         17.7210    1.3500    9.0380 C.2       1 U           0.0591
     22 H1         21.9818   -1.4589    8.4918 H         1 U           0.0639
     23 H2         23.0348   -0.0337    8.1971 H         1 U           0.0639
     24 H3         22.8411    0.5630   10.5932 H         1 U           0.0650
     25 H4         21.8580   -1.8742   11.2770 H         1 U           0.0648
     26 H5         21.0357   -0.7660   13.1275 H         1 U           0.2100
     27 H6         19.8990   -1.7884    9.9693 H         1 U           0.0676
     28 H7         18.1794   -1.3966   11.4174 H         1 U           0.2101
     29 H8         19.3429    1.0141   10.8812 H         1 U           0.0997
     30 H9         17.9549   -0.9082    6.1027 H         1 U           0.2259
     31 H10        15.9455    2.1578    8.2104 H         1 U           0.0258
     32 H11        17.6609    2.0018    9.9083 H         1 U           0.1178
@<TRIPOS>BOND
     1    1    2 ar 
     2    2    3 ar 
     3    2    4 ar 
     4    2    5 1  
     5    5    6 1  
     6    6    7 1  
     7    7    8 1  
     8    7    9 1  
     9    8   13 1  
    10    9   10 1  
    11    9   11 1  
    12   11   12 1  
    13   11   13 1  
    14   13   14 1  
    15   14   15 am 
    16   14   21 1  
    17   15   16 2  
    18   15   17 am 
    19   17   18 am 
    20   18   19 2  
    21   18   20 1  
    22   20   21 2  
    23    6   22 1  
    24    6   23 1  
    25    7   24 1  
    26    9   25 1  
    27   10   26 1  
    28   11   27 1  
    29   12   28 1  
    30   13   29 1  
    31   17   30 1  
    32   20   31 1  
    33   21   32 1  
@<TRIPOS>SUBSTRUCTURE
     1 U           1

