### 
### Created by X-TOOL on Fri Nov 18 15:38:10 2016
### 

@<TRIPOS>MOLECULE
3dgo_ligand
   43    45     1     0     0
SMALL
GAST_HUCK


@<TRIPOS>ATOM
      1 PG        -24.5410   10.2270  -17.4600 P.3       1 ATP         0.1879
      2 O1G       -24.2040    9.9670  -18.9220 O.co2     1 ATP        -0.6091
      3 O2G       -25.8070    9.5150  -17.0000 O.co2     1 ATP        -0.6091
      4 O3G       -23.3600   10.1910  -16.4730 O.co2     1 ATP        -0.6091
      5 PB        -23.9830   13.0730  -17.7870 P.3       1 ATP         0.3553
      6 O1B       -22.6920   12.4170  -18.3050 O.co2     1 ATP        -0.5652
      7 O2B       -24.0030   13.9840  -16.5660 O.co2     1 ATP        -0.5652
      8 O3B       -24.9830   11.8090  -17.4580 O.3       1 ATP        -0.1546
      9 PA        -25.5880   12.9030  -20.0670 P.3       1 ATP         0.3266
     10 O1A       -26.8160   12.5210  -19.2410 O.co2     1 ATP        -0.5692
     11 O2A       -24.7710   11.7890  -20.7670 O.co2     1 ATP        -0.5692
     12 O3A       -24.6680   13.8120  -19.0690 O.3       1 ATP        -0.1171
     13 O5'       -26.0010   13.9390  -21.2410 O.3       1 ATP        -0.2441
     14 C5'       -25.4300   13.8760  -22.5460 C.3       1 ATP         0.1131
     15 C4'       -25.1940   15.3450  -22.7780 C.3       1 ATP         0.1189
     16 O4'       -26.4130   15.9610  -22.3530 O.3       1 ATP        -0.3364
     17 C3'       -24.1020   15.8210  -21.8430 C.3       1 ATP         0.1149
     18 O3'       -23.3870   16.8630  -22.5000 O.3       1 ATP        -0.3864
     19 C2'       -24.8500   16.4910  -20.7480 C.3       1 ATP         0.1385
     20 O2'       -24.0700   17.6140  -20.3730 O.3       1 ATP        -0.3836
     21 C1'       -26.0660   16.9940  -21.4950 C.3       1 ATP         0.2010
     22 N9        -27.1460   17.2810  -20.5920 N.pl3     1 ATP        -0.1919
     23 C8        -27.7430   16.4510  -19.7290 C.2       1 ATP         0.1123
     24 N7        -28.7010   17.1400  -19.0200 N.2       1 ATP        -0.2958
     25 C5        -28.7070   18.4230  -19.4270 C.ar      1 ATP         0.1045
     26 C6        -29.4430   19.6370  -19.0930 C.ar      1 ATP         0.1298
     27 N6        -30.4120   19.6120  -18.1420 N.pl3     1 ATP        -0.3152
     28 N1        -29.1320   20.7840  -19.7490 N.ar      1 ATP        -0.2698
     29 C2        -28.1980   20.7670  -20.6910 C.ar      1 ATP         0.0533
     30 N3        -27.4850   19.6830  -21.0640 N.ar      1 ATP        -0.2714
     31 C4        -27.6840   18.5080  -20.4580 C.ar      1 ATP         0.1613
     32 H1        -26.1292   13.4506  -23.2809 H         1 ATP         0.0648
     33 H2        -24.4918   13.3018  -22.5573 H         1 ATP         0.0648
     34 H3        -24.9523   15.5668  -23.8279 H         1 ATP         0.0651
     35 H4        -23.4464   15.0085  -21.4965 H         1 ATP         0.0648
     36 H5        -22.6948   17.1782  -21.9308 H         1 ATP         0.2100
     37 H6        -25.0905   15.8356  -19.8979 H         1 ATP         0.0676
     38 H7        -23.9662   18.1901  -21.1212 H         1 ATP         0.2101
     39 H8        -25.8174   17.9015  -22.0647 H         1 ATP         0.0996
     40 H9        -27.5077   15.3948  -19.6065 H         1 ATP         0.1349
     41 H10       -30.9285   20.4725  -17.9103 H         1 ATP         0.1820
     42 H11       -30.6305   18.7326  -17.6524 H         1 ATP         0.1820
     43 H12       -27.9904   21.6996  -21.2030 H         1 ATP         0.0996
@<TRIPOS>BOND
     1    1    2 ar 
     2    1    3 ar 
     3    1    4 ar 
     4    8    1 1  
     5    5    6 ar 
     6    5    7 ar 
     7    5    8 1  
     8   12    5 1  
     9    9   10 ar 
    10    9   11 ar 
    11    9   12 1  
    12    9   13 1  
    13   13   14 1  
    14   14   15 1  
    15   15   16 1  
    16   15   17 1  
    17   16   21 1  
    18   17   18 1  
    19   17   19 1  
    20   19   20 1  
    21   19   21 1  
    22   21   22 1  
    23   22   23 1  
    24   22   31 1  
    25   23   24 2  
    26   24   25 1  
    27   25   26 ar 
    28   25   31 ar 
    29   26   27 1  
    30   26   28 ar 
    31   28   29 ar 
    32   29   30 ar 
    33   30   31 ar 
    34   14   32 1  
    35   14   33 1  
    36   15   34 1  
    37   17   35 1  
    38   18   36 1  
    39   19   37 1  
    40   20   38 1  
    41   21   39 1  
    42   23   40 1  
    43   27   41 1  
    44   27   42 1  
    45   29   43 1  
@<TRIPOS>SUBSTRUCTURE
     1 ATP         1

