### 
### Created by X-TOOL on Wed Dec 13 14:17:31 2017
### 

@<TRIPOS>MOLECULE
5anu_ligand
   45    48     1     0     0
SMALL
GAST_HUCK


@<TRIPOS>ATOM
      1 O3         18.3950   21.7840    3.9030 O.2       1 MOL        -0.3948
      2 C16        17.4950   21.1150    4.3670 C.2       1 MOL         0.3142
      3 N4         17.5840   20.1780    5.3580 N.am      1 MOL        -0.2201
      4 C2         16.3600   19.5760    5.5590 C.ar      1 MOL         0.1470
      5 N3         16.1910   21.1020    3.9200 N.am      1 MOL        -0.1793
      6 C3         15.4830   20.1530    4.6120 C.ar      1 MOL         0.1590
      7 C15        15.7300   21.8840    2.7670 C.3       1 MOL         0.0909
      8 C13        14.9260   23.1280    3.0470 C.ar      1 MOL        -0.0233
      9 C12        15.2370   24.3190    2.4150 C.ar      1 MOL        -0.0689
     10 C11        14.4730   25.4510    2.6290 C.ar      1 MOL        -0.0771
     11 C10        13.3360   25.3900    3.4150 C.ar      1 MOL        -0.0401
     12 C14        13.7770   23.0650    3.8250 C.ar      1 MOL        -0.0298
     13 C9         12.9910   24.1910    4.0100 C.ar      1 MOL         0.0846
     14 O2         11.8510   24.1860    4.7970 O.3       1 MOL        -0.3175
     15 C8         11.7630   23.3080    5.9360 C.3       1 MOL         0.0935
     16 C7         10.7050   22.2760    5.6770 C.3       1 MOL         0.0755
     17 O1         11.3110   21.2260    4.9620 O.3       1 MOL        -0.3744
     18 C6         10.6750   19.9490    5.0950 C.3       1 MOL         0.0761
     19 C5         11.5430   18.9330    4.3940 C.3       1 MOL         0.0986
     20 O          12.5550   18.4740    5.3260 O.3       1 MOL        -0.2908
     21 C4         13.8350   18.8610    5.3350 C.ar      1 MOL         0.1952
     22 N1         14.1940   19.8010    4.4650 N.ar      1 MOL        -0.2636
     23 N2         14.6010   18.2330    6.2540 N.ar      1 MOL        -0.2648
     24 C1         15.8750   18.5600    6.4200 C.ar      1 MOL         0.1243
     25 N          16.6270   17.9490    7.3460 N.pl3     1 MOL        -0.3155
     26 C          16.1870   16.8080    8.1090 C.3       1 MOL         0.0144
     27 H1         18.4180   19.9601    5.8650 H         1 MOL         0.2209
     28 H2         15.1075   21.2218    2.1473 H         1 MOL         0.0760
     29 H3         16.6207   22.1885    2.1979 H         1 MOL         0.0760
     30 H4         16.0882   24.3648    1.7454 H         1 MOL         0.0465
     31 H5         14.7665   26.3922    2.1783 H         1 MOL         0.0572
     32 H6         12.7231   26.2719    3.5624 H         1 MOL         0.0486
     33 H7         13.4932   22.1282    4.2908 H         1 MOL         0.0479
     34 H8         11.4988   23.8904    6.8310 H         1 MOL         0.0637
     35 H9         12.7316   22.8113    6.0945 H         1 MOL         0.0637
     36 H10         9.8891   22.7140    5.0833 H         1 MOL         0.0587
     37 H11        10.3042   21.9003    6.6300 H         1 MOL         0.0587
     38 H12         9.6785   19.9758    4.6300 H         1 MOL         0.0587
     39 H13        10.5763   19.6879    6.1590 H         1 MOL         0.0587
     40 H14        12.0252   19.3960    3.5205 H         1 MOL         0.0644
     41 H15        10.9277   18.0825    4.0653 H         1 MOL         0.0644
     42 H16        17.5732   18.3157    7.5225 H         1 MOL         0.1787
     43 H17        16.9862   16.4975    8.7981 H         1 MOL         0.0480
     44 H18        15.9496   15.9793    7.4257 H         1 MOL         0.0480
     45 H19        15.2895   17.0764    8.6856 H         1 MOL         0.0480
@<TRIPOS>BOND
     1    1    2 2  
     2    2    3 am 
     3    2    5 am 
     4    3    4 1  
     5    4    6 ar 
     6    4   24 ar 
     7    5    6 1  
     8    5    7 1  
     9    6   22 ar 
    10    7    8 1  
    11    8    9 ar 
    12    8   12 ar 
    13    9   10 ar 
    14   10   11 ar 
    15   11   13 ar 
    16   12   13 ar 
    17   13   14 1  
    18   14   15 1  
    19   15   16 1  
    20   16   17 1  
    21   17   18 1  
    22   18   19 1  
    23   19   20 1  
    24   20   21 1  
    25   21   22 ar 
    26   21   23 ar 
    27   23   24 ar 
    28   24   25 1  
    29   25   26 1  
    30    3   27 1  
    31    7   28 1  
    32    7   29 1  
    33    9   30 1  
    34   10   31 1  
    35   11   32 1  
    36   12   33 1  
    37   15   34 1  
    38   15   35 1  
    39   16   36 1  
    40   16   37 1  
    41   18   38 1  
    42   18   39 1  
    43   19   40 1  
    44   19   41 1  
    45   25   42 1  
    46   26   43 1  
    47   26   44 1  
    48   26   45 1  
@<TRIPOS>SUBSTRUCTURE
     1 MOL         1

