### 
### Created by X-TOOL on Fri Nov 18 17:59:56 2016
### 

@<TRIPOS>MOLECULE
4u6w_ligand
   32    31     1     0     0
SMALL
GAST_HUCK


@<TRIPOS>ATOM
      1 O2         22.0220   -2.2030   12.4430 O.co2     1 Q08        -0.5585
      2 P          21.6350   -2.6570   11.1120 P.3       1 Q08         0.1105
      3 O          20.1820   -3.3310   11.0440 O.co2     1 Q08        -0.5585
      4 O1         21.6640   -1.3300   10.2850 O.co2     1 Q08        -0.5585
      5 C7         22.8070   -3.7730   10.2500 C.3       1 Q08         0.0470
      6 N          23.7650   -2.9880    9.4270 N.4       1 Q08         0.2330
      7 C3         23.4800   -4.8010   11.1860 C.3       1 Q08         0.0176
      8 C4         24.8790   -5.0420   10.6530 C.3       1 Q08        -0.0439
      9 C5         25.5980   -6.1730   11.3510 C.3       1 Q08        -0.0554
     10 C6         26.9400   -5.7560   11.8320 C.3       1 Q08        -0.0653
     11 C2         22.7200   -6.1250   11.3060 C.3       1 Q08        -0.0439
     12 C1         23.3580   -7.4170   10.7300 C.3       1 Q08        -0.0554
     13 C          22.3710   -8.4360   10.2640 C.3       1 Q08        -0.0653
     14 H1         22.2070   -4.3643    9.5427 H         1 Q08         0.1052
     15 H2         24.4008   -3.6161    8.9609 H         1 Q08         0.2011
     16 H3         24.2859   -2.3632   10.0222 H         1 Q08         0.2011
     17 H4         23.2577   -2.4526    8.7399 H         1 Q08         0.2011
     18 H5         23.5486   -4.3613   12.1920 H         1 Q08         0.0371
     19 H6         25.4662   -4.1212   10.7845 H         1 Q08         0.0270
     20 H7         24.8080   -5.2818    9.5818 H         1 Q08         0.0270
     21 H8         25.7158   -7.0094   10.6464 H         1 Q08         0.0263
     22 H9         24.9966   -6.5006   12.2118 H         1 Q08         0.0263
     23 H10        27.4298   -6.6041   12.3328 H         1 Q08         0.0230
     24 H11        26.8324   -4.9231   12.5425 H         1 Q08         0.0230
     25 H12        27.5516   -5.4320   10.9771 H         1 Q08         0.0230
     26 H13        21.7542   -5.9888   10.7974 H         1 Q08         0.0270
     27 H14        22.5483   -6.3014   12.3781 H         1 Q08         0.0270
     28 H15        23.9795   -7.8734   11.5145 H         1 Q08         0.0263
     29 H16        23.9924   -7.1366    9.8762 H         1 Q08         0.0263
     30 H17        22.9069   -9.3137    9.8735 H         1 Q08         0.0230
     31 H18        21.7460   -8.0042    9.4685 H         1 Q08         0.0230
     32 H19        21.7331   -8.7409   11.1067 H         1 Q08         0.0230
@<TRIPOS>BOND
     1    1    2 ar 
     2    2    3 ar 
     3    2    4 ar 
     4    2    5 1  
     5    5    6 1  
     6    5    7 1  
     7    7    8 1  
     8    7   11 1  
     9    8    9 1  
    10    9   10 1  
    11   11   12 1  
    12   12   13 1  
    13    5   14 1  
    14    6   15 1  
    15    6   16 1  
    16    6   17 1  
    17    7   18 1  
    18    8   19 1  
    19    8   20 1  
    20    9   21 1  
    21    9   22 1  
    22   10   23 1  
    23   10   24 1  
    24   10   25 1  
    25   11   26 1  
    26   11   27 1  
    27   12   28 1  
    28   12   29 1  
    29   13   30 1  
    30   13   31 1  
    31   13   32 1  
@<TRIPOS>SUBSTRUCTURE
     1 Q08         1

