### 
### Created by X-TOOL on Fri Nov 18 17:26:47 2016
### 

@<TRIPOS>MOLECULE
4ca7_ligand
   87    91     1     0     0
SMALL
GAST_HUCK


@<TRIPOS>ATOM
      1 OAB        24.3480    1.4950   11.5670 O.2       1 3EF        -0.3774
      2 CAH        25.1730    4.6820   17.6130 C.ar      1 3EF        -0.0687
      3 CAK        24.2360    5.2470   16.7440 C.ar      1 3EF        -0.0685
      4 CAL        25.7940    3.4690   17.2900 C.ar      1 3EF        -0.0685
      5 CAQ        23.9140    4.5970   15.5460 C.ar      1 3EF        -0.0578
      6 CAR        25.4660    2.8130   16.0920 C.ar      1 3EF        -0.0578
      7 CBB        24.1910    2.7190   14.0160 C.3       1 3EF         0.1113
      8 OBJ        25.4070    2.1860   13.4630 O.3       1 3EF        -0.2506
      9 CBM        25.3760    1.5470   12.2530 C.2       1 3EF         0.3232
     10 CBP        24.5180    3.3740   15.2280 C.ar      1 3EF        -0.0130
     11 OAD        27.9020   -1.8030   11.8380 O.co2     1 3EF        -0.6174
     12 PBY        26.6850   -1.5190   11.0590 P.3       1 3EF         0.0154
     13 OAG        25.3740   -1.9020   11.6190 O.co2     1 3EF        -0.6174
     14 CBX        26.6290    0.2590   10.5750 C.3       1 3EF         0.1176
     15 NBI        26.5030    0.9650   11.8450 N.am      1 3EF        -0.2418
     16 CBE        27.8800    0.8150    9.8380 C.3       1 3EF         0.0205
     17 CBQ        27.7620    2.2230    9.6510 C.ar      1 3EF        -0.0393
     18 CAS        27.1170    2.7430    8.5230 C.ar      1 3EF        -0.0602
     19 CAM        26.9870    4.1270    8.3430 C.ar      1 3EF        -0.0686
     20 CAI        27.5200    5.0210    9.2810 C.ar      1 3EF        -0.0687
     21 CAN        28.1760    4.5110   10.4180 C.ar      1 3EF        -0.0686
     22 CAT        28.2940    3.1290   10.5880 C.ar      1 3EF        -0.0602
     23 OAC        29.5250   -2.5790    9.2090 O.2       1 3EF        -0.3964
     24 CAJ        26.9530  -11.5990   11.7530 C.ar      1 3EF        -0.0626
     25 CAO        26.6390  -10.3370   12.2730 C.ar      1 3EF        -0.0621
     26 CAP        27.4320  -11.7120   10.4440 C.ar      1 3EF        -0.0621
     27 CAU        26.8160   -9.1850   11.4960 C.ar      1 3EF        -0.0551
     28 CAV        27.6010  -10.5610    9.6750 C.ar      1 3EF        -0.0551
     29 CBA        26.9700   -6.9810    9.6180 C.2       1 3EF        -0.0269
     30 CBC        27.0210   -4.6840    8.4190 C.3       1 3EF         0.0422
     31 CBF        26.8290   -2.3960    9.4110 C.3       1 3EF         0.0375
     32 NBG        28.2000   -8.2480    8.3020 N.2       1 3EF        -0.1519
     33 OBK        28.1080   -6.8460    7.7490 O.3       1 3EF        -0.1670
     34 CBN        29.0120   -3.6350    9.5900 C.2       1 3EF         0.1848
     35 CBS        27.3620   -6.1750    8.6120 C.2       1 3EF         0.1411
     36 CBT        27.3010   -9.2900   10.1920 C.ar      1 3EF        -0.0150
     37 CBU        27.4750   -8.2150    9.4190 C.2       1 3EF         0.0430
     38 CBV        27.4770   -3.7880    9.5930 C.3       1 3EF         0.0788
     39 N          29.7280   -4.7100    9.9780 N.am      1 3EF        -0.2694
     40 CA         31.2190   -4.6850    9.9560 C.3       1 3EF         0.1024
     41 C          31.7560   -4.6380    8.5000 C.2       1 3EF         0.0619
     42 O          33.0010   -4.5370    8.3450 O.co2     1 3EF        -0.5665
     43 CB         31.8860   -5.9200   10.5640 C.3       1 3EF         0.0108
     44 CG         31.2090   -6.9100   11.2690 C.ar      1 3EF        -0.0499
     45 CD1        31.2710   -8.2320   10.8130 C.ar      1 3EF        -0.0686
     46 CD2        30.5470   -6.6000   12.4630 C.ar      1 3EF        -0.0686
     47 CE1        30.6380   -9.2530   11.5370 C.ar      1 3EF        -0.0398
     48 CE2        29.9190   -7.6180   13.1830 C.ar      1 3EF        -0.0398
     49 CZ         29.9730   -8.9350   12.7270 C.ar      1 3EF         0.0805
     50 OH         29.3600   -9.9050   13.4590 O.3       1 3EF        -0.3376
     51 OXT        30.9140   -4.7190    7.5720 O.co2     1 3EF        -0.5665
     52 H1         25.4203    5.1847   18.5410 H         1 3EF         0.0559
     53 H2         23.7590    6.1870   16.9967 H         1 3EF         0.0599
     54 H3         26.5261    3.0374   17.9629 H         1 3EF         0.0599
     55 H4         23.1971    5.0406   14.8646 H         1 3EF         0.0557
     56 H5         25.9456    1.8749   15.8372 H         1 3EF         0.0557
     57 H6         23.4796    1.9031   14.2116 H         1 3EF         0.0776
     58 H7         23.7425    3.4358   13.3124 H         1 3EF         0.0776
     59 H8         25.7473    0.4325    9.9405 H         1 3EF         0.0787
     60 H9         27.3046    1.0149   12.4408 H         1 3EF         0.1888
     61 H10        27.9700    0.3255    8.8571 H         1 3EF         0.0465
     62 H11        28.7777    0.6031   10.4374 H         1 3EF         0.0465
     63 H12        26.7126    2.0665    7.7787 H         1 3EF         0.0557
     64 H13        26.4696    4.5090    7.4704 H         1 3EF         0.0599
     65 H14        27.4286    6.0910    9.1335 H         1 3EF         0.0559
     66 H15        28.5877    5.1876   11.1582 H         1 3EF         0.0599
     67 H16        28.8074    2.7454   11.4622 H         1 3EF         0.0557
     68 H17        26.8251  -12.4856   12.3634 H         1 3EF         0.0610
     69 H18        26.2564  -10.2512   13.2836 H         1 3EF         0.0615
     70 H19        27.6698  -12.6855   10.0308 H         1 3EF         0.0615
     71 H20        26.5760   -8.2115   11.9080 H         1 3EF         0.0616
     72 H21        27.9706  -10.6488    8.6598 H         1 3EF         0.0616
     73 H22        26.3446   -6.6830   10.4583 H         1 3EF         0.0289
     74 H23        25.9305   -4.5877    8.3113 H         1 3EF         0.0513
     75 H24        27.5128   -4.3308    7.5006 H         1 3EF         0.0513
     76 H25        27.4511   -1.7930    8.7332 H         1 3EF         0.0495
     77 H26        25.8257   -2.5178    8.9769 H         1 3EF         0.0495
     78 H27        27.1540   -4.2318   10.5462 H         1 3EF         0.0581
     79 H28        29.2529   -5.5348   10.2845 H         1 3EF         0.1876
     80 H29        31.5486   -3.7905   10.5048 H         1 3EF         0.0747
     81 H30        32.6507   -5.5345   11.2544 H         1 3EF         0.0446
     82 H31        32.3760   -6.4358    9.7250 H         1 3EF         0.0446
     83 H32        31.8079   -8.4665    9.9009 H         1 3EF         0.0530
     84 H33        30.5222   -5.5786   12.8252 H         1 3EF         0.0530
     85 H34        30.6635  -10.2760   11.1793 H         1 3EF         0.0525
     86 H35        29.3881   -7.3843   14.0987 H         1 3EF         0.0525
     87 H36        29.4780  -10.7451   13.0314 H         1 3EF         0.2458
@<TRIPOS>BOND
     1    9    1 2  
     2    3    2 ar 
     3    4    2 ar 
     4    5    3 ar 
     5    6    4 ar 
     6   10    5 ar 
     7   10    6 ar 
     8    8    7 1  
     9    7   10 1  
    10    9    8 1  
    11   15    9 am 
    12   12   11 ar 
    13   12   13 ar 
    14   12   14 1  
    15   31   12 1  
    16   14   15 1  
    17   14   16 1  
    18   16   17 1  
    19   17   18 ar 
    20   17   22 ar 
    21   18   19 ar 
    22   19   20 ar 
    23   21   20 ar 
    24   22   21 ar 
    25   34   23 2  
    26   25   24 ar 
    27   26   24 ar 
    28   27   25 ar 
    29   28   26 ar 
    30   36   27 ar 
    31   36   28 ar 
    32   29   35 2  
    33   37   29 1  
    34   35   30 1  
    35   30   38 1  
    36   38   31 1  
    37   32   33 1  
    38   37   32 2  
    39   33   35 1  
    40   38   34 1  
    41   34   39 am 
    42   36   37 1  
    43   39   40 1  
    44   40   41 1  
    45   40   43 1  
    46   41   42 ar 
    47   41   51 ar 
    48   43   44 1  
    49   44   45 ar 
    50   44   46 ar 
    51   45   47 ar 
    52   46   48 ar 
    53   47   49 ar 
    54   48   49 ar 
    55   49   50 1  
    56    2   52 1  
    57    3   53 1  
    58    4   54 1  
    59    5   55 1  
    60    6   56 1  
    61    7   57 1  
    62    7   58 1  
    63   14   59 1  
    64   15   60 1  
    65   16   61 1  
    66   16   62 1  
    67   18   63 1  
    68   19   64 1  
    69   20   65 1  
    70   21   66 1  
    71   22   67 1  
    72   24   68 1  
    73   25   69 1  
    74   26   70 1  
    75   27   71 1  
    76   28   72 1  
    77   29   73 1  
    78   30   74 1  
    79   30   75 1  
    80   31   76 1  
    81   31   77 1  
    82   38   78 1  
    83   39   79 1  
    84   40   80 1  
    85   43   81 1  
    86   43   82 1  
    87   45   83 1  
    88   46   84 1  
    89   47   85 1  
    90   48   86 1  
    91   50   87 1  
@<TRIPOS>SUBSTRUCTURE
     1 3EF         1

