### 
### Created by X-TOOL on Fri Nov 18 17:45:51 2016
### 

@<TRIPOS>MOLECULE
4qij_ligand
   99   103     1     0     0
SMALL
GAST_HUCK


@<TRIPOS>ATOM
      1 OAJ        34.6130  -14.1480  184.4720 O.3       1 MOL        -0.3203
      2 CBT        33.4090  -13.4250  184.4960 C.ar      1 MOL         0.1244
      3 CBW        32.9960  -12.9560  183.2430 C.ar      1 MOL         0.0253
      4 CAV        33.7930  -13.2350  182.0930 C.ar      1 MOL        -0.0504
      5 CAR        33.3930  -12.7810  180.8700 C.ar      1 MOL        -0.0615
      6 CAQ        32.2100  -12.0510  180.7640 C.ar      1 MOL        -0.0624
      7 CAU        31.4250  -11.7770  181.8930 C.ar      1 MOL        -0.0567
      8 CBV        31.8320  -12.2380  183.1440 C.ar      1 MOL        -0.0227
      9 CAW        31.0470  -11.9660  184.2940 C.ar      1 MOL        -0.0648
     10 CAT        31.4640  -12.4320  185.5440 C.ar      1 MOL        -0.0560
     11 CBU        32.6280  -13.1490  185.6410 C.ar      1 MOL         0.0711
     12 CBR        33.2040  -13.7390  186.9020 C.2       1 MOL         0.1825
     13 OAF        33.0530  -13.0940  187.9150 O.2       1 MOL        -0.3761
     14 SBO        33.2790  -15.5480  187.0200 S.3       1 MOL        -0.0520
     15 CBA        33.8480  -15.9710  188.6360 C.3       1 MOL         0.0324
     16 CAY        32.6070  -15.6890  189.6200 C.3       1 MOL         0.0421
     17 NBH        32.9900  -15.2980  190.9380 N.am      1 MOL        -0.2860
     18 CBP        33.8510  -16.1080  191.7310 C.2       1 MOL         0.1779
     19 OAD        34.3080  -17.2020  191.3110 O.2       1 MOL        -0.3970
     20 CBB        34.1950  -15.6330  193.1830 C.3       1 MOL         0.0574
     21 CAZ        33.2110  -16.4210  194.0000 C.3       1 MOL         0.0477
     22 NBI        33.2530  -16.0370  195.3950 N.am      1 MOL        -0.2826
     23 CBQ        34.3850  -16.5600  196.2340 C.2       1 MOL         0.2057
     24 OAE        35.2000  -17.2650  195.7430 O.2       1 MOL        -0.3942
     25 CBZ        34.4310  -16.1900  197.7200 C.3       1 MOL         0.1510
     26 OAK        33.1480  -15.9400  198.1260 O.3       1 MOL        -0.3708
     27 CCF        35.3420  -14.9710  197.9790 C.3       1 MOL         0.0367
     28 CAA        36.8090  -15.3510  197.6440 C.3       1 MOL        -0.0528
     29 CAB        34.9240  -13.7680  197.1540 C.3       1 MOL        -0.0528
     30 CBD        35.2420  -14.6010  199.4430 C.3       1 MOL         0.0936
     31 OBK        35.0380  -15.8440  200.2010 O.3       1 MOL        -0.2496
     32 PCI        34.7770  -15.7650  201.8280 P.3       1 MOL         0.2971
     33 OAP        35.2390  -14.4820  202.3860 O.co2     1 MOL        -0.6127
     34 OAI        35.4990  -16.9270  202.4520 O.co2     1 MOL        -0.6127
     35 OBN        33.2390  -15.8030  202.1800 O.3       1 MOL        -0.1319
     36 PCH        32.0450  -16.6420  201.4440 P.3       1 MOL         0.2972
     37 OAO        32.5310  -17.5270  200.2960 O.co2     1 MOL        -0.6127
     38 OAH        31.3490  -17.5290  202.5000 O.co2     1 MOL        -0.6127
     39 O5'        31.0190  -15.5520  200.8780 O.3       1 MOL        -0.2476
     40 C5'        30.0500  -14.9050  201.7770 C.3       1 MOL         0.1131
     41 C4'        28.6860  -14.8990  201.0550 C.3       1 MOL         0.1235
     42 O4'        28.7870  -14.2810  199.9100 O.3       1 MOL        -0.3360
     43 C3'        28.2870  -16.3800  200.7180 C.3       1 MOL         0.1487
     44 O3'        26.9370  -16.5360  200.7810 O.3       1 MOL        -0.2674
     45 PCG        26.1410  -17.1830  202.0680 P.3       1 MOL         0.2013
     46 OAM        26.2790  -16.2570  203.2380 O.co2     1 MOL        -0.5537
     47 OAN        24.6210  -17.3270  201.6960 O.co2     1 MOL        -0.5537
     48 OAG        26.7200  -18.6000  202.3720 O.co2     1 MOL        -0.5537
     49 C2'        28.7220  -16.4860  199.2670 C.3       1 MOL         0.1432
     50 O2'        28.0820  -17.6770  198.5690 O.3       1 MOL        -0.3832
     51 C1'        28.3670  -15.2970  198.7650 C.3       1 MOL         0.2013
     52 N9         29.1030  -14.9920  197.5620 N.pl3     1 MOL        -0.1919
     53 C8         30.4090  -14.6000  197.5030 C.2       1 MOL         0.1123
     54 N7         30.7370  -14.4160  196.1860 N.2       1 MOL        -0.2958
     55 C5         29.6230  -14.7020  195.4300 C.ar      1 MOL         0.1045
     56 C4         28.6200  -15.0560  196.2660 C.ar      1 MOL         0.1613
     57 N3         27.3910  -15.3910  195.7510 N.ar      1 MOL        -0.2714
     58 C2         27.1800  -15.3610  194.4000 C.ar      1 MOL         0.0533
     59 N1         28.1990  -15.0020  193.5460 N.ar      1 MOL        -0.2698
     60 C6         29.4090  -14.6810  194.0480 C.ar      1 MOL         0.1298
     61 N6         30.3380  -14.3320  193.0480 N.pl3     1 MOL        -0.3152
     62 H          34.8280  -14.4322  185.3526 H         1 MOL         0.2556
     63 H          34.7105  -13.8040  182.1902 H         1 MOL         0.0645
     64 H          33.9898  -12.9861  179.9886 H         1 MOL         0.0596
     65 H          31.8919  -11.6893  179.7929 H         1 MOL         0.0627
     66 H          30.5066  -11.2098  181.7936 H         1 MOL         0.0603
     67 H          30.1275  -11.3991  184.2036 H         1 MOL         0.0500
     68 H          30.8720  -12.2281  186.4289 H         1 MOL         0.0617
     69 H          34.7091  -15.3462  188.9155 H         1 MOL         0.0423
     70 H          34.1362  -17.0318  188.6760 H         1 MOL         0.0423
     71 H          32.0068  -16.6080  189.6923 H         1 MOL         0.0529
     72 H          31.9956  -14.8850  189.1844 H         1 MOL         0.0529
     73 H          32.6462  -14.4368  191.3124 H         1 MOL         0.1851
     74 H          34.0373  -14.5506  193.2991 H         1 MOL         0.0522
     75 H          35.2317  -15.8835  193.4522 H         1 MOL         0.0522
     76 H          33.4523  -17.4909  193.9163 H         1 MOL         0.0545
     77 H          32.1981  -16.2420  193.6102 H         1 MOL         0.0545
     78 H          32.5513  -15.4427  195.7879 H         1 MOL         0.1853
     79 H          34.8280  -17.0440  198.2883 H         1 MOL         0.0844
     80 H          33.1482  -15.7074  199.0471 H         1 MOL         0.2133
     81 H          37.4628  -14.4855  197.8269 H         1 MOL         0.0238
     82 H          36.8790  -15.6464  196.5867 H         1 MOL         0.0238
     83 H          37.1250  -16.1903  198.2810 H         1 MOL         0.0238
     84 H          33.8841  -13.5020  197.3944 H         1 MOL         0.0238
     85 H          35.0022  -14.0119  196.0842 H         1 MOL         0.0238
     86 H          35.5827  -12.9179  197.3854 H         1 MOL         0.0238
     87 H          34.3919  -13.9211  199.6012 H         1 MOL         0.0628
     88 H          36.1702  -14.1098  199.7703 H         1 MOL         0.0628
     89 H          30.3665  -13.8737  201.9919 H         1 MOL         0.0648
     90 H          29.9750  -15.4693  202.7183 H         1 MOL         0.0648
     91 H          27.9242  -14.4209  201.6883 H         1 MOL         0.0654
     92 H          28.7960  -17.1074  201.3675 H         1 MOL         0.0704
     93 H          29.8139  -16.6036  199.2051 H         1 MOL         0.0680
     94 H          27.1367  -17.5851  198.5910 H         1 MOL         0.2101
     95 H          27.2862  -15.2571  198.5643 H         1 MOL         0.0996
     96 H          31.0737  -14.4584  198.3539 H         1 MOL         0.1349
     97 H          26.2067  -15.6209  193.9998 H         1 MOL         0.0996
     98 H          30.0603  -14.3552  192.0564 H         1 MOL         0.1820
     99 H          31.2949  -14.0537  193.3085 H         1 MOL         0.1820
@<TRIPOS>BOND
     1    1    2 1  
     2    2    3 ar 
     3    2   11 ar 
     4    3    4 ar 
     5    3    8 ar 
     6    4    5 ar 
     7    5    6 ar 
     8    6    7 ar 
     9    7    8 ar 
    10    8    9 ar 
    11    9   10 ar 
    12   10   11 ar 
    13   11   12 1  
    14   12   13 2  
    15   12   14 1  
    16   14   15 1  
    17   15   16 1  
    18   16   17 1  
    19   17   18 am 
    20   18   19 2  
    21   18   20 1  
    22   20   21 1  
    23   21   22 1  
    24   22   23 am 
    25   23   24 2  
    26   23   25 1  
    27   25   26 1  
    28   25   27 1  
    29   27   28 1  
    30   27   29 1  
    31   27   30 1  
    32   30   31 1  
    33   31   32 1  
    34   32   33 ar 
    35   32   34 ar 
    36   32   35 1  
    37   35   36 1  
    38   36   37 ar 
    39   36   38 ar 
    40   36   39 1  
    41   39   40 1  
    42   40   41 1  
    43   41   42 1  
    44   41   43 1  
    45   42   51 1  
    46   43   44 1  
    47   43   49 1  
    48   44   45 1  
    49   45   46 ar 
    50   45   47 ar 
    51   45   48 ar 
    52   49   50 1  
    53   49   51 1  
    54   51   52 1  
    55   52   53 1  
    56   52   56 1  
    57   53   54 2  
    58   54   55 1  
    59   55   56 ar 
    60   55   60 ar 
    61   56   57 ar 
    62   57   58 ar 
    63   58   59 ar 
    64   59   60 ar 
    65   60   61 1  
    66    1   62 1  
    67    4   63 1  
    68    5   64 1  
    69    6   65 1  
    70    7   66 1  
    71    9   67 1  
    72   10   68 1  
    73   15   69 1  
    74   15   70 1  
    75   16   71 1  
    76   16   72 1  
    77   17   73 1  
    78   20   74 1  
    79   20   75 1  
    80   21   76 1  
    81   21   77 1  
    82   22   78 1  
    83   25   79 1  
    84   26   80 1  
    85   28   81 1  
    86   28   82 1  
    87   28   83 1  
    88   29   84 1  
    89   29   85 1  
    90   29   86 1  
    91   30   87 1  
    92   30   88 1  
    93   40   89 1  
    94   40   90 1  
    95   41   91 1  
    96   43   92 1  
    97   49   93 1  
    98   50   94 1  
    99   51   95 1  
   100   53   96 1  
   101   58   97 1  
   102   61   98 1  
   103   61   99 1  
@<TRIPOS>SUBSTRUCTURE
     1 MOL         1

