### 
### Created by X-TOOL on Fri Nov 18 15:04:17 2016
### 

@<TRIPOS>MOLECULE
3bxh_ligand
   27    27     1     0     0
SMALL
GAST_HUCK


@<TRIPOS>ATOM
      1 O1         68.7520   85.6110   59.3080 O.3       1 F6P        -0.3896
      2 C1         67.8700   84.9980   60.2120 C.3       1 F6P         0.1006
      3 C2         68.5320   84.5330   61.5100 C.3       1 F6P         0.2205
      4 O2         67.5000   84.3900   62.5210 O.3       1 F6P        -0.3608
      5 C3         69.6360   85.3910   62.1290 C.3       1 F6P         0.1392
      6 O3         69.1760   86.4830   62.8810 O.3       1 F6P        -0.3837
      7 C4         70.3140   84.3680   63.0170 C.3       1 F6P         0.1148
      8 O4         71.6090   84.7590   63.3680 O.3       1 F6P        -0.3864
      9 C5         70.3730   83.2140   62.0340 C.3       1 F6P         0.1181
     10 O5         69.1720   83.2840   61.2820 O.3       1 F6P        -0.3361
     11 C6         70.5590   81.8510   62.6610 C.3       1 F6P         0.1071
     12 O6         70.5920   80.9710   61.5460 O.3       1 F6P        -0.2734
     13 P          70.6840   79.3960   61.7630 P.3       1 F6P         0.2008
     14 O1P        72.0230   79.0890   62.3620 O.co2     1 F6P        -0.5537
     15 O2P        70.5890   78.7310   60.4230 O.co2     1 F6P        -0.5537
     16 O3P        69.5450   78.9800   62.6880 O.co2     1 F6P        -0.5537
     17 H1         69.4366   84.9970   59.0696 H         1 F6P         0.2096
     18 H2         67.4230   84.1222   59.7189 H         1 F6P         0.0612
     19 H3         67.0792   85.7190   60.4663 H         1 F6P         0.0612
     20 H4         66.8545   83.7584   62.2259 H         1 F6P         0.2129
     21 H5         70.3193   85.7633   61.3515 H         1 F6P         0.0675
     22 H6         68.6371   86.1683   63.5973 H         1 F6P         0.2101
     23 H7         69.7267   84.1358   63.9176 H         1 F6P         0.0648
     24 H8         71.5732   85.5841   63.8376 H         1 F6P         0.2100
     25 H9         71.2262   83.3794   61.3597 H         1 F6P         0.0650
     26 H10        69.7190   81.6078   63.3282 H         1 F6P         0.0639
     27 H11        71.5016   81.8041   63.2261 H         1 F6P         0.0639
@<TRIPOS>BOND
     1    1    2 1  
     2    2    3 1  
     3    3    4 1  
     4    3    5 1  
     5    3   10 1  
     6    5    6 1  
     7    5    7 1  
     8    7    8 1  
     9    7    9 1  
    10    9   10 1  
    11    9   11 1  
    12   11   12 1  
    13   12   13 1  
    14   13   14 ar 
    15   13   15 ar 
    16   13   16 ar 
    17    1   17 1  
    18    2   18 1  
    19    2   19 1  
    20    4   20 1  
    21    5   21 1  
    22    6   22 1  
    23    7   23 1  
    24    8   24 1  
    25    9   25 1  
    26   11   26 1  
    27   11   27 1  
@<TRIPOS>SUBSTRUCTURE
     1 F6P         1

