### 
### Created by X-TOOL on Fri Nov 18 17:27:08 2016
### 

@<TRIPOS>MOLECULE
4ipn_ligand
   48    49     1     0     0
SMALL
GAST_HUCK


@<TRIPOS>ATOM
      1 OAH        28.8110   -1.6980   15.1760 O.co2     1 1FT        -0.5537
      2 PBA        28.6840   -0.1920   15.1290 P.3       1 1FT         0.2008
      3 OAI        28.7860    0.2650   13.6870 O.co2     1 1FT        -0.5537
      4 OAJ        29.7910    0.4140   15.9580 O.co2     1 1FT        -0.5537
      5 O6         27.2900    0.2710   15.7070 O.3       1 1FT        -0.2734
      6 C6         27.0730    0.1990   17.0630 C.3       1 1FT         0.1071
      7 C5         27.3230   -1.1530   17.6890 C.3       1 1FT         0.1161
      8 O5         26.1200   -1.8550   17.8170 O.3       1 1FT        -0.3549
      9 C4         28.1720   -1.0060   18.9590 C.3       1 1FT         0.1121
     10 O4         28.9380    0.1940   18.8410 O.3       1 1FT        -0.3865
     11 C3         27.4900   -1.0420   20.2000 C.3       1 1FT         0.1126
     12 O3         28.4840   -1.4870   21.2350 O.3       1 1FT        -0.3865
     13 C2         26.3560   -1.8980   20.2190 C.3       1 1FT         0.1189
     14 O2         25.5920   -1.7530   21.4310 O.3       1 1FT        -0.3857
     15 C1         25.4380   -1.6630   19.0290 C.3       1 1FT         0.1334
     16 SAP        23.9500   -2.6860   19.1050 S.3       1 1FT        -0.1184
     17 CAZ        23.9040   -3.9240   17.7560 C.3       1 1FT         0.0646
     18 CAX        23.2680   -5.1580   18.2770 C.3       1 1FT         0.1001
     19 OAG        24.1210   -5.7130   19.3130 O.3       1 1FT        -0.3879
     20 CAT        23.0440   -6.1330   17.2930 C.3       1 1FT         0.1325
     21 OAC        22.2880   -7.2500   17.8510 O.3       1 1FT        -0.3842
     22 CAQ        22.3060   -5.5850   16.1010 C.3       1 1FT         0.1853
     23 OAB        22.2690   -6.5260   15.1440 O.3       1 1FT        -0.3649
     24 OAN        22.9320   -4.3630   15.5670 O.3       1 1FT        -0.3422
     25 CAR        23.2140   -3.3810   16.5270 C.3       1 1FT         0.0990
     26 CAK        24.0880   -2.3210   15.8700 C.3       1 1FT         0.0716
     27 OAA        23.4780   -1.2290   15.2700 O.3       1 1FT        -0.3924
     28 H1         26.0248    0.4725   17.2538 H         1 1FT         0.0639
     29 H2         27.7369    0.9272   17.5519 H         1 1FT         0.0639
     30 H3         27.9363   -1.7305   16.9816 H         1 1FT         0.0650
     31 H4         28.8715   -1.8549   18.9700 H         1 1FT         0.0647
     32 H5         29.4982    0.1368   18.0759 H         1 1FT         0.2100
     33 H6         27.1481   -0.0240   20.4382 H         1 1FT         0.0647
     34 H7         28.0603   -1.5231   22.0845 H         1 1FT         0.2100
     35 H8         26.7232   -2.9336   20.1676 H         1 1FT         0.0655
     36 H9         25.2889   -0.8559   21.5075 H         1 1FT         0.2100
     37 H10        25.1160   -0.6118   19.0657 H         1 1FT         0.0740
     38 H11        24.9389   -4.1666   17.4731 H         1 1FT         0.0465
     39 H12        22.2969   -4.8861   18.7164 H         1 1FT         0.0633
     40 H13        24.2210   -5.0785   20.0129 H         1 1FT         0.2099
     41 H14        24.0218   -6.5043   16.9523 H         1 1FT         0.0670
     42 H15        22.1434   -7.9020   17.1753 H         1 1FT         0.2101
     43 H16        21.2777   -5.3427   16.4075 H         1 1FT         0.0935
     44 H17        21.8650   -7.3129   15.4906 H         1 1FT         0.2126
     45 H18        22.2659   -2.9216   16.8433 H         1 1FT         0.0632
     46 H19        24.6810   -2.8267   15.0938 H         1 1FT         0.0583
     47 H20        24.7600   -1.9289   16.6475 H         1 1FT         0.0583
     48 H21        24.1431   -0.6568   14.9055 H         1 1FT         0.2095
@<TRIPOS>BOND
     1    1    2 ar 
     2    2    3 ar 
     3    2    4 ar 
     4    2    5 1  
     5    5    6 1  
     6    6    7 1  
     7    7    8 1  
     8    7    9 1  
     9    8   15 1  
    10    9   10 1  
    11    9   11 1  
    12   11   12 1  
    13   11   13 1  
    14   13   14 1  
    15   13   15 1  
    16   15   16 1  
    17   16   17 1  
    18   17   18 1  
    19   17   25 1  
    20   18   19 1  
    21   18   20 1  
    22   20   21 1  
    23   20   22 1  
    24   22   23 1  
    25   22   24 1  
    26   24   25 1  
    27   25   26 1  
    28   26   27 1  
    29    6   28 1  
    30    6   29 1  
    31    7   30 1  
    32    9   31 1  
    33   10   32 1  
    34   11   33 1  
    35   12   34 1  
    36   13   35 1  
    37   14   36 1  
    38   15   37 1  
    39   17   38 1  
    40   18   39 1  
    41   19   40 1  
    42   20   41 1  
    43   21   42 1  
    44   22   43 1  
    45   23   44 1  
    46   25   45 1  
    47   26   46 1  
    48   26   47 1  
    49   27   48 1  
@<TRIPOS>SUBSTRUCTURE
     1 1FT         1

