### 
### Created by X-TOOL on Fri Nov 18 15:43:51 2016
### 

@<TRIPOS>MOLECULE
3g1v_ligand
   32    33     1     0     0
SMALL
GAST_HUCK


@<TRIPOS>ATOM
      1 F5          8.9240    6.1900   -0.0760 F         1 5FU        -0.2165
      2 C5          8.6290    5.3510    0.9880 C.2       1 5FU         0.1931
      3 C4          7.5110    5.5470    1.7610 C.2       1 5FU         0.2212
      4 O4          6.7040    6.5140    1.5860 O.2       1 5FU        -0.4071
      5 N3          7.2240    4.6810    2.7620 N.am      1 5FU        -0.1842
      6 C2          7.9930    3.5680    2.9890 C.2       1 5FU         0.3295
      7 O2          7.6710    2.7830    3.8900 O.2       1 5FU        -0.3830
      8 C6          9.4820    4.2940    1.2660 C.2       1 5FU         0.0880
      9 N1          9.1170    3.3600    2.1790 N.am      1 5FU        -0.1635
     10 C1'         9.9360    2.1300    2.2430 C.3       1 5FU         0.2035
     11 O4'         9.0740    0.9910    1.9990 O.3       1 5FU        -0.3367
     12 C2'        10.6230    1.8320    3.5600 C.3       1 5FU         0.1382
     13 O2'        11.9040    2.4390    3.6890 O.3       1 5FU        -0.3837
     14 C3'        10.6770    0.3420    3.5800 C.3       1 5FU         0.1148
     15 O3'        11.8230   -0.1070    2.8390 O.3       1 5FU        -0.3864
     16 C4'         9.4050   -0.0710    2.9170 C.3       1 5FU         0.1181
     17 C5'         8.2370   -0.2410    3.8800 C.3       1 5FU         0.1071
     18 O5'         8.4900   -1.4310    4.6180 O.3       1 5FU        -0.2734
     19 P           7.4870   -1.9610    5.7610 P.3       1 5FU         0.2008
     20 O1P         8.4250   -2.7280    6.6350 O.co2     1 5FU        -0.5537
     21 O2P         6.8760   -0.7730    6.4530 O.co2     1 5FU        -0.5537
     22 O3P         6.4880   -2.8440    5.0820 O.co2     1 5FU        -0.5537
     23 H1          6.4336    4.8569    3.3489 H         1 5FU         0.2260
     24 H2         10.4398    4.2142    0.7540 H         1 5FU         0.1107
     25 H3         10.7043    2.1976    1.4587 H         1 5FU         0.0991
     26 H4          9.9988    2.1919    4.3911 H         1 5FU         0.0676
     27 H5         11.8141    3.3825    3.6240 H         1 5FU         0.2101
     28 H6         10.7255   -0.0420    4.6096 H         1 5FU         0.0648
     29 H7         12.6121    0.2439    3.2349 H         1 5FU         0.2100
     30 H8          9.5642   -1.0154    2.3759 H         1 5FU         0.0650
     31 H9          7.2943   -0.3341    3.3209 H         1 5FU         0.0639
     32 H10         8.1765    0.6217    4.5597 H         1 5FU         0.0639
@<TRIPOS>BOND
     1    1    2 1  
     2    2    3 1  
     3    2    8 2  
     4    3    4 2  
     5    3    5 am 
     6    5    6 am 
     7    6    7 2  
     8    6    9 am 
     9    8    9 1  
    10    9   10 1  
    11   10   11 1  
    12   10   12 1  
    13   11   16 1  
    14   12   13 1  
    15   12   14 1  
    16   14   15 1  
    17   14   16 1  
    18   16   17 1  
    19   17   18 1  
    20   18   19 1  
    21   19   20 ar 
    22   19   21 ar 
    23   19   22 ar 
    24    5   23 1  
    25    8   24 1  
    26   10   25 1  
    27   12   26 1  
    28   13   27 1  
    29   14   28 1  
    30   15   29 1  
    31   16   30 1  
    32   17   31 1  
    33   17   32 1  
@<TRIPOS>SUBSTRUCTURE
     1 5FU         1

