### 
### Created by X-TOOL on Fri Nov 18 13:56:14 2016
### 

@<TRIPOS>MOLECULE
1x1z_ligand
   33    34     1     0     0
SMALL
GAST_HUCK


@<TRIPOS>ATOM
      1 P          24.5890  -15.9930    8.7310 P.3       1 MOL         0.2008
      2 O1P        25.8850  -15.2300    8.8790 O.co2     1 MOL        -0.5537
      3 O2P        23.4250  -15.0490    8.5920 O.co2     1 MOL        -0.5537
      4 O3P        24.6850  -16.9770    7.5900 O.co2     1 MOL        -0.5537
      5 O5         24.2760  -16.8040   10.0820 O.3       1 MOL        -0.2734
      6 C5         25.3360  -17.3930   10.8650 C.3       1 MOL         0.1071
      7 C4         24.5700  -18.0980   11.9540 C.3       1 MOL         0.1181
      8 O4         25.4970  -18.9710   12.6590 O.3       1 MOL        -0.3367
      9 C3         24.0090  -17.2220   13.0130 C.3       1 MOL         0.1148
     10 O3         22.8550  -17.8020   13.6440 O.3       1 MOL        -0.3864
     11 C2         25.1330  -17.1190   14.0520 C.3       1 MOL         0.1383
     12 O2         24.6400  -16.7680   15.3100 O.3       1 MOL        -0.3837
     13 C1         25.7490  -18.4970   13.9880 C.3       1 MOL         0.2082
     14 N1         27.2100  -18.6080   14.2190 N.am      1 MOL        -0.1249
     15 C2         28.1140  -17.8160   13.5290 C.2       1 MOL         0.3330
     16 O2         27.7620  -17.0320   12.6790 O.2       1 MOL        -0.3821
     17 N3         29.4100  -17.9790   13.8380 N.am      1 MOL        -0.1915
     18 C4         29.9410  -18.8820   14.7960 C.2       1 MOL         0.1636
     19 O4         31.1580  -18.8920   14.9280 O.2       1 MOL        -0.4266
     20 C5         28.9890  -19.6960   15.4790 C.2       1 MOL         0.0219
     21 C6         27.6490  -19.5780   15.1830 C.2       1 MOL         0.2117
     22 O1         26.7510  -20.2950   15.7020 O.3       1 MOL        -0.2890
     23 H1         26.0015  -16.6218   11.2801 H         1 MOL         0.0639
     24 H2         25.9260  -18.1037   10.2677 H         1 MOL         0.0639
     25 H3         23.7570  -18.6784   11.4934 H         1 MOL         0.0650
     26 H4         23.7513  -16.2347   12.6022 H         1 MOL         0.0648
     27 H5         22.1790  -17.9478   12.9926 H         1 MOL         0.2100
     28 H6         25.8714  -16.3620   13.7493 H         1 MOL         0.0675
     29 H7         25.3601  -16.7132   15.9271 H         1 MOL         0.2101
     30 H8         25.2401  -19.1354   14.7252 H         1 MOL         0.0991
     31 H9         30.0662  -17.4080   13.3447 H         1 MOL         0.2246
     32 H10        29.3209  -20.4088   16.2324 H         1 MOL         0.0051
     33 H11        27.1467  -20.8978   16.3205 H         1 MOL         0.2637
@<TRIPOS>BOND
     1    1    2 ar 
     2    1    3 ar 
     3    1    4 ar 
     4    1    5 1  
     5    5    6 1  
     6    6    7 1  
     7    7    8 1  
     8    7    9 1  
     9    8   13 1  
    10    9   10 1  
    11    9   11 1  
    12   11   12 1  
    13   11   13 1  
    14   13   14 1  
    15   14   15 am 
    16   14   21 1  
    17   15   16 2  
    18   15   17 am 
    19   17   18 am 
    20   18   19 2  
    21   18   20 1  
    22   20   21 2  
    23   21   22 1  
    24    6   23 1  
    25    6   24 1  
    26    7   25 1  
    27    9   26 1  
    28   10   27 1  
    29   11   28 1  
    30   12   29 1  
    31   13   30 1  
    32   17   31 1  
    33   20   32 1  
    34   22   33 1  
@<TRIPOS>SUBSTRUCTURE
     1 MOL         1

