### 
### Created by X-TOOL on Fri Nov 18 17:54:50 2016
### 

@<TRIPOS>MOLECULE
4non_ligand
   41    43     1     0     0
SMALL
GAST_HUCK


@<TRIPOS>ATOM
      1 PB         -0.8970  -37.3200   16.1450 P.3       1 GDP         0.2069
      2 O1B        -1.5510  -36.9380   14.8400 O.co2     1 GDP        -0.5891
      3 O2B        -0.8720  -36.2210   17.1770 O.co2     1 GDP        -0.5891
      4 O3B         0.4170  -38.0580   16.0260 O.co2     1 GDP        -0.5891
      5 O3A        -1.8870  -38.3910   16.8340 O.3       1 GDP        -0.1548
      6 PA         -2.9210  -39.3340   16.0360 P.3       1 GDP         0.3276
      7 O1A        -4.1610  -38.5370   15.7390 O.co2     1 GDP        -0.5556
      8 O2A        -2.1990  -40.0470   14.9150 O.co2     1 GDP        -0.5556
      9 O5'        -3.2640  -40.4090   17.1770 O.3       1 GDP        -0.2436
     10 C5'        -2.2110  -40.9500   17.9720 C.3       1 GDP         0.1132
     11 C4'        -2.6490  -42.2440   18.6450 C.3       1 GDP         0.1190
     12 O4'        -3.4660  -41.9290   19.7720 O.3       1 GDP        -0.3347
     13 C3'        -3.4660  -43.1520   17.7350 C.3       1 GDP         0.1151
     14 O3'        -3.0070  -44.5060   17.8530 O.3       1 GDP        -0.3864
     15 C2'        -4.8970  -43.0200   18.2180 C.3       1 GDP         0.1407
     16 O2'        -5.5700  -44.2800   18.1960 O.3       1 GDP        -0.3835
     17 C1'        -4.7730  -42.4980   19.6420 C.3       1 GDP         0.2218
     18 N9         -5.7530  -41.4460   20.0070 N.pl3     1 GDP        -0.0954
     19 C8         -5.9570  -40.2730   19.3760 C.2       1 GDP         0.1855
     20 N7         -6.9140  -39.5440   20.0090 N.2       1 GDP        -0.1929
     21 C5         -7.3270  -40.2520   21.0750 C.2       1 GDP         0.2558
     22 C6         -8.3090  -40.0750   22.1720 C.2       1 GDP         0.2628
     23 O6         -9.0040  -39.0430   22.2490 O.2       1 GDP        -0.3594
     24 N1         -8.4330  -41.0530   23.0820 N.am      1 GDP        -0.2478
     25 C2         -7.6930  -42.1830   23.0240 C.cat     1 GDP         0.2041
     26 N2         -7.8640  -43.1360   23.9730 N.pl3     1 GDP        -0.3327
     27 N3         -6.7750  -42.4090   22.0490 N.pl3     1 GDP        -0.1901
     28 C4         -6.5530  -41.5000   21.0690 C.2       1 GDP         0.3268
     29 H          -1.9309  -40.2190   18.7447 H         1 GDP         0.0648
     30 H          -1.3425  -41.1546   17.3287 H         1 GDP         0.0648
     31 H          -1.7515  -42.7868   18.9764 H         1 GDP         0.0651
     32 H          -3.3832  -42.8265   16.6876 H         1 GDP         0.0648
     33 H          -3.5218  -45.0646   17.2825 H         1 GDP         0.2100
     34 H          -5.4492  -42.3041   17.5915 H         1 GDP         0.0677
     35 H          -5.1141  -44.8912   18.7627 H         1 GDP         0.2101
     36 H          -4.8895  -43.3424   20.3373 H         1 GDP         0.1021
     37 H          -5.4270  -39.9524   18.4803 H         1 GDP         0.1823
     38 H          -9.0926  -40.9428   23.8255 H         1 GDP         0.1819
     39 H          -7.3065  -44.0014   23.9401 H         1 GDP         0.1774
     40 H          -8.5515  -42.9946   24.7269 H         1 GDP         0.1774
     41 H          -6.2376  -43.2877   22.0546 H         1 GDP         0.2519
@<TRIPOS>BOND
     1    1    2 ar 
     2    1    3 ar 
     3    1    4 ar 
     4    1    5 1  
     5    5    6 1  
     6    6    7 ar 
     7    6    8 ar 
     8    6    9 1  
     9    9   10 1  
    10   10   11 1  
    11   11   12 1  
    12   11   13 1  
    13   12   17 1  
    14   13   14 1  
    15   13   15 1  
    16   15   16 1  
    17   15   17 1  
    18   17   18 1  
    19   18   19 1  
    20   18   28 1  
    21   19   20 2  
    22   20   21 1  
    23   21   22 1  
    24   21   28 2  
    25   22   23 2  
    26   22   24 am 
    27   24   25 ar 
    28   25   26 ar 
    29   25   27 ar 
    30   27   28 1  
    31   10   29 1  
    32   10   30 1  
    33   11   31 1  
    34   13   32 1  
    35   14   33 1  
    36   15   34 1  
    37   16   35 1  
    38   17   36 1  
    39   19   37 1  
    40   24   38 1  
    41   26   39 1  
    42   26   40 1  
    43   27   41 1  
@<TRIPOS>SUBSTRUCTURE
     1 GDP         1

