### 
### Created by X-TOOL on Fri Nov 18 17:58:15 2016
### 

@<TRIPOS>MOLECULE
4rd0_ligand
   41    43     1     0     0
SMALL
GAST_HUCK


@<TRIPOS>ATOM
      1 PB        -29.7330  -17.6060   18.7270 P.3       1 GDP         0.2069
      2 O1B       -30.8720  -16.7030   19.1660 O.co2     1 GDP        -0.5891
      3 O2B       -29.3720  -17.3490   17.3060 O.co2     1 GDP        -0.5891
      4 O3B       -28.5610  -17.4090   19.6610 O.co2     1 GDP        -0.5891
      5 O3A       -30.2450  -19.1290   18.8020 O.3       1 GDP        -0.1548
      6 PA        -30.1220  -20.0740   20.0900 P.3       1 GDP         0.3276
      7 O1A       -28.7710  -20.7320   20.1480 O.co2     1 GDP        -0.5556
      8 O2A       -30.5330  -19.4060   21.3950 O.co2     1 GDP        -0.5556
      9 O5'       -31.2250  -21.1830   19.6960 O.3       1 GDP        -0.2436
     10 C5'       -32.5970  -20.8330   19.4960 C.3       1 GDP         0.1132
     11 C4'       -33.4000  -22.1260   19.5200 C.3       1 GDP         0.1190
     12 O4'       -32.9820  -22.9380   18.4190 O.3       1 GDP        -0.3347
     13 C3'       -33.1260  -22.9380   20.7750 C.3       1 GDP         0.1151
     14 O3'       -34.3450  -23.5870   21.1360 O.3       1 GDP        -0.3864
     15 C2'       -32.1280  -23.9870   20.3270 C.3       1 GDP         0.1407
     16 O2'       -32.1850  -25.1780   21.1080 O.3       1 GDP        -0.3835
     17 C1'       -32.5500  -24.2110   18.8830 C.3       1 GDP         0.2218
     18 N9        -31.4140  -24.7270   18.0930 N.pl3     1 GDP        -0.0954
     19 C8        -30.1710  -24.2100   18.0190 C.2       1 GDP         0.1855
     20 N7        -29.3920  -24.9600   17.1930 N.2       1 GDP        -0.1929
     21 C5        -30.1560  -25.9680   16.7230 C.2       1 GDP         0.2558
     22 C6        -29.9660  -27.1170   15.8180 C.2       1 GDP         0.2628
     23 O6        -28.8560  -27.3050   15.2910 O.2       1 GDP        -0.3594
     24 N1        -31.0080  -27.9330   15.5810 N.am      1 GDP        -0.2478
     25 C2        -32.2130  -27.7330   16.1580 C.cat     1 GDP         0.2041
     26 N2        -33.2310  -28.5890   15.8770 N.pl3     1 GDP        -0.3327
     27 N3        -32.4580  -26.6970   17.0060 N.pl3     1 GDP        -0.1901
     28 C4        -31.4840  -25.8050   17.3170 C.2       1 GDP         0.3268
     29 H1        -32.7201  -20.3310   18.5250 H         1 GDP         0.0648
     30 H2        -32.9363  -20.1638   20.3004 H         1 GDP         0.0648
     31 H3        -34.4731  -21.8951   19.4478 H         1 GDP         0.0651
     32 H4        -32.7379  -22.3210   21.5988 H         1 GDP         0.0648
     33 H5        -34.6231  -24.1536   20.4260 H         1 GDP         0.2100
     34 H6        -31.1032  -23.5902   20.3738 H         1 GDP         0.0677
     35 H7        -33.0533  -25.5576   21.0417 H         1 GDP         0.2101
     36 H8        -33.3792  -24.9321   18.8334 H         1 GDP         0.1021
     37 H9        -29.8373  -23.3175   18.5463 H         1 GDP         0.1823
     38 H10       -30.8878  -28.7085   14.9612 H         1 GDP         0.1819
     39 H11       -34.1554  -28.4494   16.3093 H         1 GDP         0.1774
     40 H12       -33.0779  -29.3772   15.2318 H         1 GDP         0.1774
     41 H13       -33.3960  -26.5886   17.4175 H         1 GDP         0.2519
@<TRIPOS>BOND
     1    1    2 ar 
     2    1    3 ar 
     3    1    4 ar 
     4    1    5 1  
     5    5    6 1  
     6    6    7 ar 
     7    6    8 ar 
     8    6    9 1  
     9    9   10 1  
    10   10   11 1  
    11   11   12 1  
    12   11   13 1  
    13   12   17 1  
    14   13   14 1  
    15   13   15 1  
    16   15   16 1  
    17   15   17 1  
    18   17   18 1  
    19   18   19 1  
    20   18   28 1  
    21   19   20 2  
    22   20   21 1  
    23   21   22 1  
    24   21   28 2  
    25   22   23 2  
    26   22   24 am 
    27   24   25 ar 
    28   25   26 ar 
    29   25   27 ar 
    30   27   28 1  
    31   10   29 1  
    32   10   30 1  
    33   11   31 1  
    34   13   32 1  
    35   14   33 1  
    36   15   34 1  
    37   16   35 1  
    38   17   36 1  
    39   19   37 1  
    40   24   38 1  
    41   26   39 1  
    42   26   40 1  
    43   27   41 1  
@<TRIPOS>SUBSTRUCTURE
     1 GDP         1

