### 
### Created by X-TOOL on Fri Nov 18 14:33:33 2016
### 

@<TRIPOS>MOLECULE
2bmk_ligand
   36    36     1     0     0
SMALL
GAST_HUCK


@<TRIPOS>ATOM
      1 N          75.6480   33.6140   62.1450 N.4       1 PDD         0.2517
      2 N1         74.6870   38.6070   62.4280 N.ar      1 PDD        -0.3257
      3 C2         74.5920   37.6720   63.4220 C.ar      1 PDD         0.0391
      4 C2A        73.8720   38.0430   64.6840 C.3       1 PDD        -0.0224
      5 C3         75.1980   36.3860   63.1860 C.ar      1 PDD         0.1167
      6 O3A        75.1460   35.4160   64.1130 O.3       1 PDD        -0.3347
      7 C4         75.8800   36.1380   61.9290 C.ar      1 PDD         0.0476
      8 C4A        76.5160   34.7620   61.7260 C.3       1 PDD         0.0030
      9 C5         75.9340   37.1950   60.9390 C.ar      1 PDD         0.0057
     10 C5A        76.6340   37.0420   59.5890 C.3       1 PDD         0.1105
     11 OP4        77.3300   38.2750   59.2680 O.3       1 PDD        -0.2651
     12 P          77.6610   38.5710   57.7240 P.3       1 PDD         0.2035
     13 OP1        76.4560   38.1500   56.9540 O.co2     1 PDD        -0.5536
     14 OP2        78.9020   37.6990   57.3660 O.co2     1 PDD        -0.5536
     15 OP3        78.0780   40.0160   57.6120 O.co2     1 PDD        -0.5536
     16 C6         75.3210   38.4110   61.2310 C.ar      1 PDD        -0.0130
     17 CA         76.4500   32.4810   62.7530 C.3       1 PDD         0.0285
     18 CB         77.5330   31.9780   61.7920 C.3       1 PDD        -0.0094
     19 C          75.4790   31.3420   63.1570 C.2       1 PDD         0.0842
     20 O          75.5360   30.3060   62.2760 O.co2     1 PDD        -0.5643
     21 OXT        74.6760   31.3870   64.2000 O.co2     1 PDD        -0.5643
     22 H1         75.1570   33.2664   61.3362 H         1 PDD         0.2043
     23 H2         74.9822   33.9425   62.8268 H         1 PDD         0.2043
     24 H3         73.8834   37.1890   65.3772 H         1 PDD         0.0382
     25 H4         72.8313   38.3094   64.4476 H         1 PDD         0.0382
     26 H5         74.3732   38.9026   65.1529 H         1 PDD         0.0382
     27 H6         75.5943   34.6442   63.7876 H         1 PDD         0.2454
     28 H7         76.7503   34.6449   60.6576 H         1 PDD         0.0963
     29 H8         77.4462   34.7225   62.3119 H         1 PDD         0.0963
     30 H9         75.8875   36.8278   58.8100 H         1 PDD         0.0762
     31 H10        77.3571   36.2147   59.6415 H         1 PDD         0.0762
     32 H11        75.3463   39.2121   60.5012 H         1 PDD         0.0621
     33 H12        76.9478   32.8538   63.6603 H         1 PDD         0.1022
     34 H13        78.0925   31.1585   62.2667 H         1 PDD         0.0303
     35 H14        78.2218   32.8015   61.5523 H         1 PDD         0.0303
     36 H15        77.0620   31.6130   60.8674 H         1 PDD         0.0303
@<TRIPOS>BOND
     1    8    1 1  
     2    1   17 1  
     3    3    2 ar 
     4    2   16 ar 
     5    3    4 1  
     6    5    3 ar 
     7    5    6 1  
     8    7    5 ar 
     9    7    8 1  
    10    7    9 ar 
    11    9   10 1  
    12    9   16 ar 
    13   10   11 1  
    14   11   12 1  
    15   12   13 ar 
    16   12   14 ar 
    17   12   15 ar 
    18   17   18 1  
    19   17   19 1  
    20   19   20 ar 
    21   19   21 ar 
    22    1   22 1  
    23    1   23 1  
    24    4   24 1  
    25    4   25 1  
    26    4   26 1  
    27    6   27 1  
    28    8   28 1  
    29    8   29 1  
    30   10   30 1  
    31   10   31 1  
    32   16   32 1  
    33   17   33 1  
    34   18   34 1  
    35   18   35 1  
    36   18   36 1  
@<TRIPOS>SUBSTRUCTURE
     1 PDD         1

