### 
### Created by X-TOOL on Fri Nov 18 17:27:10 2016
### 

@<TRIPOS>MOLECULE
4l6t_ligand
  129   133     1     0     0
SMALL
GAST_HUCK


@<TRIPOS>ATOM
      1 C1         -6.7080   53.8300  -27.1480 C.3       1 GAL         0.1884
      2 C2         -6.2550   52.7460  -28.1030 C.3       1 GAL         0.1341
      3 C3         -5.7310   51.5390  -27.3260 C.3       1 GAL         0.1141
      4 C4         -4.6990   51.9700  -26.2730 C.3       1 GAL         0.1119
      5 C5         -5.1870   53.1440  -25.4440 C.3       1 GAL         0.1130
      6 C6         -4.1100   53.6670  -24.4750 C.3       1 GAL         0.0730
      7 O2         -7.3530   52.3710  -28.9670 O.3       1 GAL        -0.3841
      8 O3         -5.1090   50.5970  -28.2130 O.3       1 GAL        -0.3864
      9 O4         -3.4680   52.3170  -26.9230 O.3       1 GAL        -0.3865
     10 O5         -5.6230   54.2130  -26.2810 O.3       1 GAL        -0.3405
     11 O6         -4.6950   54.7090  -23.6910 O.3       1 GAL        -0.3924
     12 C1         -9.7140   57.4750  -26.9790 C.3       1 GAL         0.1854
     13 C2         -9.0900   56.3160  -27.7400 C.3       1 GAL         0.1213
     14 C3         -7.7430   55.9450  -27.1220 C.3       1 GAL         0.1176
     15 C4         -6.8530   57.1810  -27.0290 C.3       1 GAL         0.1120
     16 C5         -7.5830   58.2660  -26.2540 C.3       1 GAL         0.1130
     17 C6         -6.7760   59.5470  -26.0910 C.3       1 GAL         0.0730
     18 C7        -10.7940   54.8160  -28.6500 C.2       1 GAL         0.1733
     19 C8        -11.9100   53.8800  -28.2740 C.3       1 GAL         0.0257
     20 N2         -9.9700   55.1620  -27.6550 N.am      1 GAL        -0.2766
     21 O3         -7.1010   54.9610  -27.9170 O.3       1 GAL        -0.3403
     22 O4         -6.5340   57.6190  -28.3580 O.3       1 GAL        -0.3865
     23 O5         -8.8050   58.5840  -26.9340 O.3       1 GAL        -0.3408
     24 O6         -7.6010   60.4680  -25.3700 O.3       1 GAL        -0.3924
     25 O7        -10.6440   55.2290  -29.7910 O.2       1 GAL        -0.3974
     26 C1        -13.9650   58.8750  -28.6900 C.3       1 GAL         0.1884
     27 C2        -13.7430   57.5410  -27.9910 C.3       1 GAL         0.1344
     28 C3        -13.0750   57.6840  -26.6290 C.3       1 GAL         0.1200
     29 C4        -11.8220   58.5350  -26.7820 C.3       1 GAL         0.1186
     30 C5        -12.1850   59.8630  -27.4190 C.3       1 GAL         0.1134
     31 C6        -10.9490   60.7580  -27.5150 C.3       1 GAL         0.0730
     32 O2        -15.0010   56.8550  -27.8180 O.3       1 GAL        -0.3841
     33 O3        -12.7420   56.3580  -26.2660 O.3       1 GAL        -0.3380
     34 O4        -10.8980   57.9020  -27.6580 O.3       1 GAL        -0.3404
     35 O5        -12.7370   59.6210  -28.7240 O.3       1 GAL        -0.3405
     36 O6        -11.3710   62.0460  -27.9610 O.3       1 GAL        -0.3924
     37 C1        -12.2430   54.6670  -24.8540 C.2       1 GAL         0.1041
     38 C2        -12.8760   56.0340  -24.8880 C.3       1 GAL         0.2208
     39 C3        -14.3400   56.0120  -24.4100 C.3       1 GAL         0.0353
     40 C4        -14.4180   55.6690  -22.9130 C.3       1 GAL         0.0850
     41 C5        -13.4590   56.5250  -22.0700 C.3       1 GAL         0.0964
     42 C6        -12.0620   56.5160  -22.7060 C.3       1 GAL         0.1143
     43 C7        -11.0700   57.4550  -22.0300 C.3       1 GAL         0.1114
     44 C8         -9.8150   57.6200  -22.8770 C.3       1 GAL         0.1065
     45 C9         -8.7460   58.3510  -22.0670 C.3       1 GAL         0.0727
     46 C10       -13.3000   56.7630  -19.6160 C.2       1 GAL         0.1733
     47 C11       -13.3170   56.0470  -18.2860 C.3       1 GAL         0.0257
     48 N5        -13.4620   56.0000  -20.7040 N.am      1 GAL        -0.2790
     49 O1A       -12.9960   53.5740  -24.8940 O.co2     1 GAL        -0.5426
     50 O1B       -11.0170   54.5380  -24.8280 O.co2     1 GAL        -0.5426
     51 O4        -15.7540   55.8170  -22.3930 O.3       1 GAL        -0.3893
     52 O6        -12.1390   56.9420  -24.0720 O.3       1 GAL        -0.3384
     53 O7        -11.6330   58.7610  -21.8460 O.3       1 GAL        -0.3865
     54 O8         -9.3380   56.3380  -23.2930 O.3       1 GAL        -0.3869
     55 O9         -7.8110   59.0110  -22.9360 O.3       1 GAL        -0.3924
     56 O10       -13.1420   57.9740  -19.6810 O.2       1 GAL        -0.3974
     57 C2        -14.7040   60.9200  -32.8840 C.3       1 GAL         0.1339
     58 C3        -14.0490   59.8830  -31.9730 C.3       1 GAL         0.1144
     59 C4        -14.8900   59.6560  -30.7250 C.3       1 GAL         0.1184
     60 C5        -16.3270   59.3350  -31.1450 C.3       1 GAL         0.1134
     61 C6        -17.2670   59.1000  -29.9710 C.3       1 GAL         0.0730
     62 C1        -16.1300   60.4760  -33.1960 C.3       1 GAL         0.1854
     63 O1        -16.7510   61.4290  -34.0640 O.3       1 GAL        -0.3649
     64 O2        -13.9390   61.0650  -34.0870 O.3       1 GAL        -0.3841
     65 O3        -12.7280   60.3090  -31.6110 O.3       1 GAL        -0.3864
     66 O4        -14.3190   58.5460  -30.0360 O.3       1 GAL        -0.3401
     67 O5        -16.8310   60.4020  -31.9510 O.3       1 GAL        -0.3407
     68 O6        -17.3250   60.2880  -29.1750 O.3       1 GAL        -0.3924
     69 H1         -7.5547   53.4683  -26.5461 H         1 GAL         0.0938
     70 H2         -5.4383   53.1412  -28.7249 H         1 GAL         0.0671
     71 H3         -6.5780   51.0522  -26.8204 H         1 GAL         0.0648
     72 H4         -4.5173   51.1210  -25.5976 H         1 GAL         0.0647
     73 H5         -6.0444   52.7992  -24.8473 H         1 GAL         0.0647
     74 H6         -3.2552   54.0619  -25.0437 H         1 GAL         0.0584
     75 H7         -3.7693   52.8521  -23.8194 H         1 GAL         0.0584
     76 H8         -7.6600   53.1370  -29.4377 H         1 GAL         0.2101
     77 H9         -5.7365   50.3211  -28.8708 H         1 GAL         0.2100
     78 H10        -3.1658   51.5800  -27.4407 H         1 GAL         0.2100
     79 H11        -4.9903   55.4071  -24.2638 H         1 GAL         0.2095
     80 H12        -9.9616   57.1538  -25.9565 H         1 GAL         0.0935
     81 H13        -8.9481   56.6011  -28.7929 H         1 GAL         0.0633
     82 H14        -7.9093   55.5422  -26.1120 H         1 GAL         0.0649
     83 H15        -5.9229   56.9259  -26.5001 H         1 GAL         0.0647
     84 H16        -7.8166   57.8749  -25.2528 H         1 GAL         0.0647
     85 H17        -6.5195   59.9608  -27.0774 H         1 GAL         0.0584
     86 H18        -5.8535   59.3440  -25.5273 H         1 GAL         0.0584
     87 H19       -12.5219   53.6635  -29.1621 H         1 GAL         0.0467
     88 H20       -12.5375   54.3490  -27.5019 H         1 GAL         0.0467
     89 H21       -11.4867   52.9430  -27.8832 H         1 GAL         0.0467
     90 H22        -9.9588   54.6072  -26.8231 H         1 GAL         0.1857
     91 H23        -6.0795   56.9236  -28.8189 H         1 GAL         0.2100
     92 H24        -7.8214   60.0981  -24.5232 H         1 GAL         0.2095
     93 H25       -14.7573   59.4552  -28.1945 H         1 GAL         0.0938
     94 H26       -13.0907   56.9285  -28.6308 H         1 GAL         0.0671
     95 H27       -13.7541   58.1377  -25.8921 H         1 GAL         0.0650
     96 H28       -11.3618   58.6961  -25.7960 H         1 GAL         0.0651
     97 H29       -12.9402   60.3665  -26.7976 H         1 GAL         0.0647
     98 H30       -10.2333   60.3305  -28.2326 H         1 GAL         0.0584
     99 H31       -10.4718   60.8428  -26.5275 H         1 GAL         0.0584
    100 H32       -15.4272   56.7599  -28.6617 H         1 GAL         0.2101
    101 H33       -11.7851   61.9652  -28.8122 H         1 GAL         0.2095
    102 H34       -14.8957   55.2553  -24.9832 H         1 GAL         0.0336
    103 H35       -14.7894   57.0019  -24.5775 H         1 GAL         0.0336
    104 H36       -14.1227   54.6154  -22.8006 H         1 GAL         0.0618
    105 H37       -13.8227   57.5629  -22.0486 H         1 GAL         0.0608
    106 H38       -11.6709   55.4890  -22.6590 H         1 GAL         0.0646
    107 H39       -10.7982   57.0338  -21.0509 H         1 GAL         0.0647
    108 H40       -10.0583   58.2163  -23.7688 H         1 GAL         0.0643
    109 H41        -8.2066   57.6239  -21.4423 H         1 GAL         0.0584
    110 H42        -9.2304   59.0997  -21.4230 H         1 GAL         0.0584
    111 H43       -13.1753   56.7765  -17.4750 H         1 GAL         0.0467
    112 H44       -12.5049   55.3056  -18.2583 H         1 GAL         0.0467
    113 H45       -14.2832   55.5375  -18.1561 H         1 GAL         0.0467
    114 H46       -13.5923   55.0168  -20.5762 H         1 GAL         0.1856
    115 H47       -15.7744   55.5273  -21.4884 H         1 GAL         0.2099
    116 H48       -12.4209   58.6937  -21.3194 H         1 GAL         0.2100
    117 H49       -10.0138   55.8974  -23.7947 H         1 GAL         0.2100
    118 H50        -8.2728   59.6422  -23.4753 H         1 GAL         0.2095
    119 H51       -14.7360   61.8892  -32.3648 H         1 GAL         0.0671
    120 H52       -13.9740   58.9325  -32.5216 H         1 GAL         0.0648
    121 H53       -14.8784   60.5498  -30.0839 H         1 GAL         0.0651
    122 H54       -16.3053   58.4159  -31.7490 H         1 GAL         0.0647
    123 H55       -16.8928   58.2650  -29.3604 H         1 GAL         0.0584
    124 H56       -18.2723   58.8582  -30.3462 H         1 GAL         0.0584
    125 H57       -16.1216   59.4889  -33.6814 H         1 GAL         0.0935
    126 H58       -16.2741   61.4659  -34.8849 H         1 GAL         0.2126
    127 H59       -14.3475   61.7171  -34.6441 H         1 GAL         0.2101
    128 H60       -12.3164   59.6406  -31.0759 H         1 GAL         0.2100
    129 H61       -16.4554   60.4950  -28.8532 H         1 GAL         0.2095
@<TRIPOS>BOND
     1    1    2 1  
     2    1   10 1  
     3   21    1 1  
     4    2    3 1  
     5    2    7 1  
     6    3    4 1  
     7    3    8 1  
     8    5    4 1  
     9    4    9 1  
    10    5    6 1  
    11   10    5 1  
    12    6   11 1  
    13   12   13 1  
    14   12   23 1  
    15   34   12 1  
    16   13   14 1  
    17   13   20 1  
    18   14   15 1  
    19   14   21 1  
    20   16   15 1  
    21   15   22 1  
    22   16   17 1  
    23   23   16 1  
    24   17   24 1  
    25   18   19 1  
    26   20   18 am 
    27   18   25 2  
    28   26   27 1  
    29   26   35 1  
    30   66   26 1  
    31   27   28 1  
    32   27   32 1  
    33   28   29 1  
    34   28   33 1  
    35   30   29 1  
    36   29   34 1  
    37   30   31 1  
    38   35   30 1  
    39   31   36 1  
    40   33   38 1  
    41   38   37 1  
    42   37   49 ar 
    43   37   50 ar 
    44   38   39 1  
    45   38   52 1  
    46   39   40 1  
    47   40   41 1  
    48   40   51 1  
    49   42   41 1  
    50   41   48 1  
    51   42   43 1  
    52   52   42 1  
    53   43   44 1  
    54   43   53 1  
    55   44   45 1  
    56   44   54 1  
    57   45   55 1  
    58   46   47 1  
    59   48   46 am 
    60   46   56 2  
    61   58   57 1  
    62   57   62 1  
    63   57   64 1  
    64   59   58 1  
    65   58   65 1  
    66   59   60 1  
    67   59   66 1  
    68   60   61 1  
    69   60   67 1  
    70   61   68 1  
    71   62   63 1  
    72   62   67 1  
    73    1   69 1  
    74    2   70 1  
    75    3   71 1  
    76    4   72 1  
    77    5   73 1  
    78    6   74 1  
    79    6   75 1  
    80    7   76 1  
    81    8   77 1  
    82    9   78 1  
    83   11   79 1  
    84   12   80 1  
    85   13   81 1  
    86   14   82 1  
    87   15   83 1  
    88   16   84 1  
    89   17   85 1  
    90   17   86 1  
    91   19   87 1  
    92   19   88 1  
    93   19   89 1  
    94   20   90 1  
    95   22   91 1  
    96   24   92 1  
    97   26   93 1  
    98   27   94 1  
    99   28   95 1  
   100   29   96 1  
   101   30   97 1  
   102   31   98 1  
   103   31   99 1  
   104   32  100 1  
   105   36  101 1  
   106   39  102 1  
   107   39  103 1  
   108   40  104 1  
   109   41  105 1  
   110   42  106 1  
   111   43  107 1  
   112   44  108 1  
   113   45  109 1  
   114   45  110 1  
   115   47  111 1  
   116   47  112 1  
   117   47  113 1  
   118   48  114 1  
   119   51  115 1  
   120   53  116 1  
   121   54  117 1  
   122   55  118 1  
   123   57  119 1  
   124   58  120 1  
   125   59  121 1  
   126   60  122 1  
   127   61  123 1  
   128   61  124 1  
   129   62  125 1  
   130   63  126 1  
   131   64  127 1  
   132   65  128 1  
   133   68  129 1  
@<TRIPOS>SUBSTRUCTURE
     1 GAL         1

