### 
### Created by X-TOOL on Fri Nov 18 14:18:52 2016
### 

@<TRIPOS>MOLECULE
2haw_ligand
   10     9     1     0     0
SMALL
GAST_HUCK


@<TRIPOS>ATOM
      1 P1        -10.8010   -7.7140  125.3170 P.3       1 MOL         0.1747
      2 O1        -10.3070   -8.3430  124.0260 O.co2     1 MOL        -0.5460
      3 O2        -10.0050   -8.6030  126.4190 O.co2     1 MOL        -0.5460
      4 O3        -10.4990   -6.1790  125.4690 O.co2     1 MOL        -0.5460
      5 N1        -12.6090   -7.9040  125.5370 N.am      1 MOL        -0.2030
      6 P2        -13.8650   -7.1380  125.6220 P.3       1 MOL         0.1546
      7 O4        -14.7670   -7.8830  124.5540 O.co2     1 MOL        -0.5646
      8 O5        -14.4230   -7.0990  126.9460 O.co2     1 MOL        -0.5646
      9 O6        -13.4520   -5.6580  125.2260 O.co2     1 MOL        -0.5646
     10 H1        -12.8196   -8.8767  125.6344 H         1 MOL         0.2053
@<TRIPOS>BOND
     1    1    2 ar 
     2    1    3 ar 
     3    1    4 ar 
     4    1    5 am 
     5    5    6 1  
     6    6    7 ar 
     7    6    8 ar 
     8    6    9 ar 
     9    5   10 1  
@<TRIPOS>SUBSTRUCTURE
     1 MOL         1

