### 
### Created by X-TOOL on Fri Nov 18 16:09:11 2016
### 

@<TRIPOS>MOLECULE
3k1j_ligand
   39    41     1     0     0
SMALL
GAST_HUCK


@<TRIPOS>ATOM
      1 PB        -29.7870  -61.7880   -9.3070 P.3       1 ADP         0.2069
      2 O1B       -29.6190  -60.8490   -8.1830 O.co2     1 ADP        -0.5891
      3 O2B       -29.4260  -61.2200  -10.6230 O.co2     1 ADP        -0.5891
      4 O3B       -29.2010  -63.1140   -9.0630 O.co2     1 ADP        -0.5891
      5 PA        -32.3760  -62.3100  -10.6430 P.3       1 ADP         0.3276
      6 O1A       -32.6100  -60.9860  -11.2350 O.co2     1 ADP        -0.5556
      7 O2A       -31.8490  -63.3140  -11.5320 O.co2     1 ADP        -0.5556
      8 O3A       -31.3320  -62.1740   -9.4110 O.3       1 ADP        -0.1548
      9 O5'       -33.7520  -62.8560  -10.0300 O.3       1 ADP        -0.2436
     10 C5'       -34.4470  -64.0860  -10.2670 C.3       1 ADP         0.1132
     11 C4'       -35.9100  -63.9730  -10.3920 C.3       1 ADP         0.1189
     12 O4'       -36.2740  -63.5780   -9.0650 O.3       1 ADP        -0.3364
     13 C3'       -36.4340  -62.7510  -11.1670 C.3       1 ADP         0.1149
     14 O3'       -36.2480  -62.9200  -12.5630 O.3       1 ADP        -0.3864
     15 C2'       -37.8590  -62.6440  -10.5930 C.3       1 ADP         0.1385
     16 O2'       -38.6040  -63.7210  -10.9860 O.3       1 ADP        -0.3836
     17 C1'       -37.5360  -62.7600   -9.1140 C.3       1 ADP         0.2010
     18 N9        -36.9010  -61.7370   -8.1520 N.pl3     1 ADP        -0.1919
     19 C8        -35.7640  -61.4890   -7.4480 C.2       1 ADP         0.1123
     20 N7        -35.8220  -60.3750   -6.7490 N.2       1 ADP        -0.2958
     21 C5        -37.0800  -59.8380   -7.0090 C.ar      1 ADP         0.1045
     22 C6        -37.7910  -58.6330   -6.5650 C.ar      1 ADP         0.1298
     23 N6        -37.2780  -57.7340   -5.6930 N.pl3     1 ADP        -0.3152
     24 N1        -39.0720  -58.4240   -7.0620 N.ar      1 ADP        -0.2698
     25 C2        -39.5960  -59.3190   -7.9050 C.ar      1 ADP         0.0533
     26 N3        -39.0230  -60.4700   -8.3680 N.ar      1 ADP        -0.2714
     27 C4        -37.7480  -60.6680   -7.8840 C.ar      1 ADP         0.1613
     28 H1        -34.2298  -64.7650   -9.4293 H         1 ADP         0.0648
     29 H2        -34.0596  -64.5199  -11.2006 H         1 ADP         0.0648
     30 H3        -36.3622  -64.9116  -10.7448 H         1 ADP         0.0651
     31 H4        -35.8743  -61.8477  -10.8827 H         1 ADP         0.0648
     32 H5        -35.3221  -63.0256  -12.7475 H         1 ADP         0.2100
     33 H6        -38.3601  -61.7003  -10.8543 H         1 ADP         0.0676
     34 H7        -39.4805  -63.6461  -10.6274 H         1 ADP         0.2101
     35 H8        -38.4119  -63.2183   -8.6316 H         1 ADP         0.0996
     36 H9        -34.8947  -62.1448   -7.4612 H         1 ADP         0.1349
     37 H10       -37.8294  -56.9075   -5.4214 H         1 ADP         0.1820
     38 H11       -36.3362  -57.8764   -5.3009 H         1 ADP         0.1820
     39 H12       -40.5961  -59.1062   -8.2649 H         1 ADP         0.0996
@<TRIPOS>BOND
     1    1    2 ar 
     2    1    3 ar 
     3    1    4 ar 
     4    8    1 1  
     5    5    6 ar 
     6    5    7 ar 
     7    5    8 1  
     8    5    9 1  
     9    9   10 1  
    10   10   11 1  
    11   11   12 1  
    12   11   13 1  
    13   12   17 1  
    14   13   14 1  
    15   13   15 1  
    16   15   16 1  
    17   15   17 1  
    18   17   18 1  
    19   18   19 1  
    20   18   27 1  
    21   19   20 2  
    22   20   21 1  
    23   21   22 ar 
    24   21   27 ar 
    25   22   23 1  
    26   22   24 ar 
    27   24   25 ar 
    28   25   26 ar 
    29   26   27 ar 
    30   10   28 1  
    31   10   29 1  
    32   11   30 1  
    33   13   31 1  
    34   14   32 1  
    35   15   33 1  
    36   16   34 1  
    37   17   35 1  
    38   19   36 1  
    39   23   37 1  
    40   23   38 1  
    41   25   39 1  
@<TRIPOS>SUBSTRUCTURE
     1 ADP         1

