### 
### Created by X-TOOL on Fri Nov 18 16:35:23 2016
### 

@<TRIPOS>MOLECULE
2yaz_ligand
   31    32     1     0     0
SMALL
GAST_HUCK


@<TRIPOS>ATOM
      1 N1        -17.1980   34.9490   -7.8570 N.am      1 UMP        -0.1618
      2 C2        -17.8520   34.1650   -6.9120 C.2       1 UMP         0.3327
      3 N3        -17.2960   33.9080   -5.6840 N.am      1 UMP        -0.1865
      4 C4        -16.0580   34.4270   -5.3950 C.2       1 UMP         0.1822
      5 C5        -15.3830   35.2190   -6.3310 C.2       1 UMP         0.0062
      6 C6        -15.9650   35.4730   -7.5740 C.2       1 UMP         0.0590
      7 O2        -18.9510   33.6860   -7.1350 O.2       1 UMP        -0.3815
      8 O4        -15.5740   34.1870   -4.2940 O.2       1 UMP        -0.4124
      9 C1'       -17.8810   35.2020   -9.1420 C.3       1 UMP         0.1800
     10 C2'       -19.0690   36.1280   -8.9240 C.3       1 UMP         0.0316
     11 C3'       -19.2780   36.7570  -10.2850 C.3       1 UMP         0.0890
     12 C4'       -17.9830   36.5180  -11.0260 C.3       1 UMP         0.1156
     13 O3'       -20.2710   36.0870  -11.0120 O.3       1 UMP        -0.3890
     14 O4'       -17.1190   35.7850  -10.1720 O.3       1 UMP        -0.3387
     15 C5'       -17.3920   37.8700  -11.4070 C.3       1 UMP         0.1071
     16 O5'       -16.0860   37.6710  -11.9130 O.3       1 UMP        -0.2734
     17 P         -15.4530   38.8010  -12.8680 P.3       1 UMP         0.2008
     18 OP1       -16.4410   38.8460  -14.0460 O.co2     1 UMP        -0.5537
     19 OP2       -14.0090   38.4560  -13.1930 O.co2     1 UMP        -0.5537
     20 OP3       -15.4410   40.1040  -12.1320 O.co2     1 UMP        -0.5537
     21 H1        -17.7841   33.3522   -5.0111 H         1 UMP         0.2259
     22 H2        -14.4063   35.6360   -6.0901 H         1 UMP         0.0258
     23 H3        -15.4437   36.0818   -8.3113 H         1 UMP         0.1178
     24 H4        -18.2446   34.2300   -9.5067 H         1 UMP         0.0970
     25 H5        -18.8382   36.8931   -8.1681 H         1 UMP         0.0345
     26 H6        -19.9582   35.5607   -8.6119 H         1 UMP         0.0345
     27 H7        -19.5139   37.8276  -10.1945 H         1 UMP         0.0622
     28 H8        -18.1731   35.9349  -11.9391 H         1 UMP         0.0649
     29 H9        -20.3097   36.4404  -11.8930 H         1 UMP         0.2099
     30 H10       -17.3496   38.5182  -10.5193 H         1 UMP         0.0639
     31 H11       -18.0186   38.3435  -12.1772 H         1 UMP         0.0639
@<TRIPOS>BOND
     1    1    2 am 
     2    1    6 1  
     3    1    9 1  
     4    2    3 am 
     5    2    7 2  
     6    3    4 am 
     7    4    5 1  
     8    4    8 2  
     9    5    6 2  
    10    9   10 1  
    11    9   14 1  
    12   10   11 1  
    13   11   12 1  
    14   11   13 1  
    15   12   14 1  
    16   12   15 1  
    17   15   16 1  
    18   16   17 1  
    19   17   18 ar 
    20   17   19 ar 
    21   17   20 ar 
    22    3   21 1  
    23    5   22 1  
    24    6   23 1  
    25    9   24 1  
    26   10   25 1  
    27   10   26 1  
    28   11   27 1  
    29   12   28 1  
    30   13   29 1  
    31   15   30 1  
    32   15   31 1  
@<TRIPOS>SUBSTRUCTURE
     1 UMP         1

