### 
### Created by X-TOOL on Fri Nov 18 17:10:47 2016
### 

@<TRIPOS>MOLECULE
4axd_ligand
   44    46     1     0     0
SMALL
GAST_HUCK


@<TRIPOS>ATOM
      1 PG        -22.0810    0.1340  -25.2910 P.3       1 ANP         0.1803
      2 O1G       -22.9750   -1.1740  -25.0720 O.co2     1 ANP        -0.5454
      3 O2G       -22.8920    1.2880  -26.0730 O.co2     1 ANP        -0.5454
      4 O3G       -20.8560   -0.2770  -26.0330 O.co2     1 ANP        -0.5454
      5 PB        -20.3660    0.1990  -22.7660 P.3       1 ANP         0.2543
      6 O1B       -20.0660   -1.2330  -22.9660 O.co2     1 ANP        -0.6257
      7 O2B       -18.9790    1.0110  -22.8290 O.co2     1 ANP        -0.6257
      8 N3B       -21.5580    0.8740  -23.8230 N.am      1 ANP        -0.1803
      9 PA        -21.6900    1.7300  -20.8000 P.3       1 ANP         0.2949
     10 O1A       -22.9680    1.9250  -21.5760 O.co2     1 ANP        -0.6129
     11 O2A       -20.6550    2.8250  -20.7300 O.co2     1 ANP        -0.6129
     12 O3A       -20.9820    0.3680  -21.2890 O.3       1 ANP        -0.1431
     13 O5'       -22.0360    1.2980  -19.2950 O.3       1 ANP        -0.2478
     14 C5'       -22.9210    0.2210  -19.0370 C.3       1 ANP         0.1128
     15 C4'       -23.9350    0.6410  -17.9800 C.3       1 ANP         0.1189
     16 O4'       -23.2550    1.0140  -16.7870 O.3       1 ANP        -0.3364
     17 C3'       -24.7540    1.8630  -18.3720 C.3       1 ANP         0.1149
     18 O3'       -25.9100    1.5020  -19.1410 O.3       1 ANP        -0.3864
     19 C2'       -25.0560    2.5330  -17.0430 C.3       1 ANP         0.1385
     20 O2'       -26.2320    2.0190  -16.4280 O.3       1 ANP        -0.3836
     21 C1'       -23.8760    2.1350  -16.1670 C.3       1 ANP         0.2010
     22 N9        -22.9190    3.2610  -16.1100 N.pl3     1 ANP        -0.1919
     23 C8        -21.9720    3.5660  -17.0180 C.2       1 ANP         0.1123
     24 N7        -21.2850    4.6590  -16.6340 N.2       1 ANP        -0.2958
     25 C5        -21.7950    5.0710  -15.4640 C.ar      1 ANP         0.1045
     26 C6        -21.5290    6.1610  -14.5030 C.ar      1 ANP         0.1298
     27 N6        -20.5630    7.0790  -14.7180 N.pl3     1 ANP        -0.3152
     28 N1        -22.2980    6.2140  -13.3930 N.ar      1 ANP        -0.2698
     29 C2        -23.2830    5.3240  -13.1600 C.ar      1 ANP         0.0533
     30 N3        -23.5760    4.3040  -13.9850 N.ar      1 ANP        -0.2714
     31 C4        -22.8760    4.1430  -15.1280 C.ar      1 ANP         0.1613
     32 H1        -21.9699    1.7485  -23.5667 H         1 ANP         0.2132
     33 H2        -22.3488   -0.6450  -18.6729 H         1 ANP         0.0648
     34 H3        -23.4480   -0.0509  -19.9634 H         1 ANP         0.0648
     35 H4        -24.6101   -0.2054  -17.7854 H         1 ANP         0.0651
     36 H5        -24.1430    2.5400  -18.9871 H         1 ANP         0.0648
     37 H6        -26.3959    2.2863  -19.3674 H         1 ANP         0.2100
     38 H7        -25.1338    3.6239  -17.1607 H         1 ANP         0.0676
     39 H8        -26.9756    2.1592  -17.0024 H         1 ANP         0.2101
     40 H9        -24.2160    1.8755  -15.1535 H         1 ANP         0.0996
     41 H10       -21.7876    3.0071  -17.9343 H         1 ANP         0.1349
     42 H11       -20.4013    7.8275  -14.0291 H         1 ANP         0.1820
     43 H12       -19.9876    7.0310  -15.5709 H         1 ANP         0.1820
     44 H13       -23.8718    5.4371  -12.2569 H         1 ANP         0.0996
@<TRIPOS>BOND
     1    1    2 ar 
     2    1    3 ar 
     3    1    4 ar 
     4    8    1 am 
     5    5    6 ar 
     6    5    7 ar 
     7    5    8 1  
     8   12    5 1  
     9    9   10 ar 
    10    9   11 ar 
    11    9   12 1  
    12    9   13 1  
    13   13   14 1  
    14   14   15 1  
    15   15   16 1  
    16   15   17 1  
    17   16   21 1  
    18   17   18 1  
    19   17   19 1  
    20   19   20 1  
    21   19   21 1  
    22   21   22 1  
    23   22   23 1  
    24   22   31 1  
    25   23   24 2  
    26   24   25 1  
    27   25   26 ar 
    28   25   31 ar 
    29   26   27 1  
    30   26   28 ar 
    31   28   29 ar 
    32   29   30 ar 
    33   30   31 ar 
    34    8   32 1  
    35   14   33 1  
    36   14   34 1  
    37   15   35 1  
    38   17   36 1  
    39   18   37 1  
    40   19   38 1  
    41   20   39 1  
    42   21   40 1  
    43   23   41 1  
    44   27   42 1  
    45   27   43 1  
    46   29   44 1  
@<TRIPOS>SUBSTRUCTURE
     1 ANP         1

