### 
### Created by X-TOOL on Wed Dec 13 14:18:28 2017
### 

@<TRIPOS>MOLECULE
5ey4_ligand
   42    44     1     0     0
SMALL
GAST_HUCK


@<TRIPOS>ATOM
      1 PG         17.9770  -17.1990   -3.4900 P.3       1 DTP         0.1879
      2 O1G        17.8170  -17.6120   -4.9140 O.co2     1 DTP        -0.6091
      3 O2G        19.0690  -16.1690   -3.4240 O.co2     1 DTP        -0.6091
      4 O3G        18.3720  -18.3190   -2.6220 O.co2     1 DTP        -0.6091
      5 PB         16.0950  -15.1150   -2.8680 P.3       1 DTP         0.3553
      6 O1B        16.2980  -14.4040   -4.1570 O.co2     1 DTP        -0.5652
      7 O2B        14.6880  -14.9800   -2.4300 O.co2     1 DTP        -0.5652
      8 O3B        16.5700  -16.6190   -3.0020 O.3       1 DTP        -0.1546
      9 PA         16.9240  -13.3810   -0.7060 P.3       1 DTP         0.3266
     10 O1A        16.5060  -12.0960   -1.3480 O.co2     1 DTP        -0.5692
     11 O2A        18.2900  -13.2360   -0.0610 O.co2     1 DTP        -0.5692
     12 O3A        17.0640  -14.5390   -1.7610 O.3       1 DTP        -0.1171
     13 O5'        15.7950  -13.7120    0.4160 O.3       1 DTP        -0.2441
     14 C5'        15.7470  -15.0290    1.0140 C.3       1 DTP         0.1130
     15 C4'        14.6070  -15.0960    2.0140 C.3       1 DTP         0.1164
     16 O4'        14.7250  -14.0630    2.9970 O.3       1 DTP        -0.3389
     17 C3'        13.2210  -14.9150    1.3910 C.3       1 DTP         0.0890
     18 O3'        12.3600  -15.7470    2.1090 O.3       1 DTP        -0.3889
     19 C2'        12.8490  -13.4470    1.6730 C.3       1 DTP         0.0315
     20 C1'        13.5620  -13.2400    3.0270 C.3       1 DTP         0.1751
     21 N9         14.0430  -11.8820    3.3080 N.pl3     1 DTP        -0.1945
     22 C8         15.0200  -11.2490    2.6530 C.2       1 DTP         0.1122
     23 N7         15.2550  -10.0730    3.2060 N.2       1 DTP        -0.2958
     24 C5         14.4400   -9.9540    4.2490 C.ar      1 DTP         0.1045
     25 C6         14.2130   -8.9720    5.2100 C.ar      1 DTP         0.1298
     26 N6         14.9190   -7.8020    5.2010 N.pl3     1 DTP        -0.3152
     27 N1         13.2820   -9.1800    6.1360 N.ar      1 DTP        -0.2698
     28 C2         12.5740  -10.3160    6.1210 C.ar      1 DTP         0.0533
     29 N3         12.7460  -11.2960    5.2460 N.ar      1 DTP        -0.2714
     30 C4         13.6700  -11.1110    4.3100 C.ar      1 DTP         0.1612
     31 H1         16.6975  -15.2314    1.5292 H         1 DTP         0.0648
     32 H2         15.5884  -15.7819    0.2279 H         1 DTP         0.0648
     33 H3         14.6495  -16.0782    2.5074 H         1 DTP         0.0650
     34 H4         13.2076  -15.1447    0.3153 H         1 DTP         0.0622
     35 H5         12.3608  -15.4885    3.0232 H         1 DTP         0.2099
     36 H6         11.7609  -13.3120    1.7607 H         1 DTP         0.0345
     37 H7         13.2411  -12.7713    0.8986 H         1 DTP         0.0345
     38 H8         12.8828  -13.5502    3.8347 H         1 DTP         0.0969
     39 H9         15.5473  -11.6459    1.7868 H         1 DTP         0.1349
     40 H10        14.7386   -7.0861    5.9192 H         1 DTP         0.1820
     41 H11        15.6315   -7.6360    4.4760 H         1 DTP         0.1820
     42 H12        11.8072  -10.4429    6.8767 H         1 DTP         0.0996
@<TRIPOS>BOND
     1    1    2 ar 
     2    1    3 ar 
     3    1    4 ar 
     4    8    1 1  
     5    5    6 ar 
     6    5    7 ar 
     7    5    8 1  
     8   12    5 1  
     9    9   10 ar 
    10    9   11 ar 
    11    9   12 1  
    12    9   13 1  
    13   13   14 1  
    14   14   15 1  
    15   15   16 1  
    16   15   17 1  
    17   16   20 1  
    18   17   18 1  
    19   17   19 1  
    20   19   20 1  
    21   20   21 1  
    22   21   22 1  
    23   21   30 1  
    24   22   23 2  
    25   23   24 1  
    26   24   25 ar 
    27   24   30 ar 
    28   25   26 1  
    29   25   27 ar 
    30   27   28 ar 
    31   28   29 ar 
    32   29   30 ar 
    33   14   31 1  
    34   14   32 1  
    35   15   33 1  
    36   17   34 1  
    37   18   35 1  
    38   19   36 1  
    39   19   37 1  
    40   20   38 1  
    41   22   39 1  
    42   26   40 1  
    43   26   41 1  
    44   28   42 1  
@<TRIPOS>SUBSTRUCTURE
     1 DTP         1

