### 
### Created by X-TOOL on Fri Nov 18 14:48:02 2016
### 

@<TRIPOS>MOLECULE
2v8w_ligand
   48    50     1     0     0
SMALL
GAST_HUCK


@<TRIPOS>ATOM
      1 OAJ        39.3600   13.8400   56.2030 O.co2     1 MGO        -0.6091
      2 PBE        39.8090   12.6210   57.2090 P.3       1 MGO         0.1879
      3 OAD        41.0130   13.3330   58.0940 O.co2     1 MGO        -0.6091
      4 OAI        40.2040   11.3810   56.4510 O.co2     1 MGO        -0.6091
      5 OAS        38.5500   12.3130   58.2410 O.3       1 MGO        -0.1546
      6 PBG        37.3340   13.3310   58.4920 P.3       1 MGO         0.3553
      7 OAL        36.7090   12.7060   59.8420 O.co2     1 MGO        -0.5652
      8 OAF        37.7420   14.7490   58.5860 O.co2     1 MGO        -0.5652
      9 OAT        36.3280   13.1590   57.3020 O.3       1 MGO        -0.1171
     10 PBF        35.2200   12.0250   57.2250 P.3       1 MGO         0.3266
     11 OAK        34.4780   12.4210   55.8210 O.co2     1 MGO        -0.5692
     12 OAE        34.3080   12.0670   58.4000 O.co2     1 MGO        -0.5692
     13 O5'        35.9550   10.5980   57.0580 O.3       1 MGO        -0.2441
     14 C5'        36.4120    9.8390   58.1740 C.3       1 MGO         0.1131
     15 C4'        36.0570    8.3710   58.0920 C.3       1 MGO         0.1190
     16 O4'        34.6350    8.2870   58.3110 O.3       1 MGO        -0.3355
     17 C3'        36.2250    7.7670   56.6950 C.3       1 MGO         0.1150
     18 O3'        37.5450    7.3450   56.5120 O.3       1 MGO        -0.3864
     19 C2'        35.3150    6.5680   56.8060 C.3       1 MGO         0.1397
     20 O2'        35.8030    5.6580   57.7750 O.3       1 MGO        -0.3835
     21 C1'        34.0930    7.2340   57.4170 C.3       1 MGO         0.2101
     22 NBC        33.1420    7.7570   56.3560 N.pl3     1 MGO        -0.1529
     23 CAN        32.9210    9.0490   56.0020 C.2       1 MGO         0.1422
     24 NBD        31.9710    9.0570   55.0420 N.2       1 MGO        -0.3076
     25 CAA        31.4610   10.2760   54.3840 C.3       1 MGO        -0.0039
     26 CAX        31.5810    7.7950   54.7680 C.2       1 MGO         0.1910
     27 CAW        32.3410    6.9720   55.6160 C.2       1 MGO         0.2331
     28 CAM        32.1990    5.5890   55.6020 N.2       1 MGO        -0.1481
     29 CAU        31.2980    5.0140   54.7280 C.2       1 MGO         0.3134
     30 NAB        31.1780    3.6890   54.7130 N.pl3     1 MGO        -0.2552
     31 NAP        30.5320    5.8140   53.8530 N.am      1 MGO        -0.1404
     32 CAV        30.6750    7.2060   53.8620 C.2       1 MGO         0.3089
     33 OAC        29.9870    7.8660   53.0900 O.2       1 MGO        -0.3308
     34 H1         35.9609   10.2557   59.0866 H         1 MGO         0.0648
     35 H2         37.5067    9.9296   58.2318 H         1 MGO         0.0648
     36 H3         36.6310    7.7997   58.8364 H         1 MGO         0.0651
     37 H4         35.9214    8.4580   55.8948 H         1 MGO         0.0648
     38 H5         37.7599    6.6889   57.1646 H         1 MGO         0.2100
     39 H6         35.1245    6.0763   55.8406 H         1 MGO         0.0677
     40 H7         36.6705    5.3637   57.5230 H         1 MGO         0.2101
     41 H8         33.5429    6.4995   58.0234 H         1 MGO         0.1009
     42 H9         33.4205    9.9228   56.4178 H         1 MGO         0.1610
     43 H10        31.9596   11.1588   54.8106 H         1 MGO         0.0360
     44 H11        30.3758   10.3536   54.5463 H         1 MGO         0.0360
     45 H12        31.6676   10.2240   53.3048 H         1 MGO         0.0360
     46 H13        31.7412    3.1136   55.3553 H         1 MGO         0.2040
     47 H14        30.5219    3.2387   54.0591 H         1 MGO         0.2040
     48 H15        29.8843    5.3841   53.2239 H         1 MGO         0.2760
@<TRIPOS>BOND
     1    1    2 ar 
     2    2    3 ar 
     3    2    4 ar 
     4    2    5 1  
     5    5    6 1  
     6    6    7 ar 
     7    6    8 ar 
     8    6    9 1  
     9    9   10 1  
    10   10   11 ar 
    11   10   12 ar 
    12   10   13 1  
    13   13   14 1  
    14   14   15 1  
    15   15   16 1  
    16   15   17 1  
    17   16   21 1  
    18   17   18 1  
    19   17   19 1  
    20   19   20 1  
    21   19   21 1  
    22   21   22 1  
    23   22   23 1  
    24   22   27 1  
    25   23   24 2  
    26   24   25 1  
    27   24   26 1  
    28   26   27 2  
    29   26   32 1  
    30   27   28 1  
    31   28   29 2  
    32   29   30 1  
    33   29   31 am 
    34   31   32 am 
    35   32   33 2  
    36   14   34 1  
    37   14   35 1  
    38   15   36 1  
    39   17   37 1  
    40   18   38 1  
    41   19   39 1  
    42   20   40 1  
    43   21   41 1  
    44   23   42 1  
    45   25   43 1  
    46   25   44 1  
    47   25   45 1  
    48   30   46 1  
    49   30   47 1  
    50   31   48 1  
@<TRIPOS>SUBSTRUCTURE
     1 MGO         1

