### 
### Created by X-TOOL on Fri Nov 18 13:29:49 2016
### 

@<TRIPOS>MOLECULE
1mrn_ligand
   80    84     1     0     0
SMALL
GAST_HUCK


@<TRIPOS>ATOM
      1 BN1        24.1110    9.6250    9.2120 N.am      1 T5A        -0.1736
      2 BC6        25.4490    9.9530    9.3140 C.2       1 T5A         0.0524
      3 BC2        23.6230    8.3500    9.4760 C.2       1 T5A         0.3265
      4 BO2        22.4300    7.9550    9.3900 O.2       1 T5A        -0.3843
      5 BN3        24.6220    7.4520    9.8570 N.am      1 T5A        -0.1859
      6 BC4        26.0010    7.6980    9.9840 C.2       1 T5A         0.1930
      7 BO4        26.8160    6.7920   10.3330 O.2       1 T5A        -0.4079
      8 BC5        26.4040    9.0710    9.6790 C.2       1 T5A         0.0225
      9 BC7        27.8940    9.4200    9.7910 C.3       1 T5A        -0.0437
     10 BC5'       24.2260   13.3990    6.7610 C.3       1 T5A         0.1127
     11 BC4'       23.1620   12.4870    7.3760 C.3       1 T5A         0.1163
     12 BO4'       23.7380   11.1810    7.5520 O.3       1 T5A        -0.3395
     13 BC1'       23.1750   10.6430    8.7860 C.3       1 T5A         0.1757
     14 BC2'       23.0710   11.9250    9.6460 C.3       1 T5A         0.0308
     15 BC3'       22.6820   13.0410    8.7000 C.3       1 T5A         0.0889
     16 BO3'       21.2800   13.2560    8.6190 O.3       1 T5A        -0.3890
     17 PA         25.8040   14.8290    8.2550 P.3       1 T5A         0.2978
     18 O1A        27.2270   14.9810    8.3680 O.co2     1 T5A        -0.6127
     19 O2A        25.0420   14.9790    9.5080 O.co2     1 T5A        -0.6127
     20 BO5'       25.3210   13.4090    7.5910 O.3       1 T5A        -0.2476
     21 O3A        25.2430   15.9610    7.6370 O.3       1 T5A        -0.1265
     22 PB         25.4270   16.7690    6.2260 P.3       1 T5A         0.3361
     23 O1B        24.2190   17.6130    5.9880 O.co2     1 T5A        -0.6079
     24 O2B        25.7480   15.7670    5.1770 O.co2     1 T5A        -0.6079
     25 O3B        26.7780   17.5170    6.4650 O.3       1 T5A        -0.1210
     26 PC         27.2590   18.9290    6.3660 P.3       1 T5A         0.3367
     27 O1C        27.1910   19.4870    7.7200 O.co2     1 T5A        -0.6078
     28 O2C        28.5620   18.8750    5.7020 O.co2     1 T5A        -0.6078
     29 O3C        26.2330   19.6350    5.3300 O.3       1 T5A        -0.1210
     30 PD         26.3060   20.8590    4.2080 P.3       1 T5A         0.3361
     31 O1D        26.9790   22.0460    4.8210 O.co2     1 T5A        -0.6079
     32 O2D        24.9320   20.8980    3.7130 O.co2     1 T5A        -0.6079
     33 O3D        27.4110   20.4020    3.1330 O.3       1 T5A        -0.1265
     34 PE         27.4650   19.6650    1.6680 P.3       1 T5A         0.2978
     35 O1E        26.5450   20.3750    0.7210 O.co2     1 T5A        -0.6127
     36 O2E        28.9080   19.6790    1.3920 O.co2     1 T5A        -0.6127
     37 AO5'       26.9960   18.2220    2.0350 O.3       1 T5A        -0.2476
     38 AC5'       25.9710   17.5140    1.3160 C.3       1 T5A         0.1128
     39 AC4'       26.4680   16.3420    0.5290 C.3       1 T5A         0.1189
     40 AO4'       25.3100   15.7720   -0.0650 O.3       1 T5A        -0.3364
     41 AC1'       25.3950   15.6600   -1.5130 C.3       1 T5A         0.2010
     42 AC2'       26.8920   15.7060   -1.8010 C.3       1 T5A         0.1385
     43 AO2'       27.3340   14.3550   -1.7580 O.3       1 T5A        -0.3836
     44 AC3'       27.4610   16.6530   -0.6890 C.3       1 T5A         0.1149
     45 AO3'       28.7600   16.2420   -0.2310 O.3       1 T5A        -0.3864
     46 AN9        24.7480   16.7900   -2.2420 N.pl3     1 T5A        -0.1919
     47 AC4        24.1280   16.6910   -3.4800 C.ar      1 T5A         0.1613
     48 AN3        23.9900   15.5380   -4.2540 N.ar      1 T5A        -0.2714
     49 AC2        23.3380   15.7670   -5.4220 C.ar      1 T5A         0.0533
     50 AN1        22.8450   16.9840   -5.8470 N.ar      1 T5A        -0.2698
     51 AC6        22.9900   18.1110   -5.0680 C.ar      1 T5A         0.1298
     52 AN6        22.4830   19.2260   -5.5670 N.pl3     1 T5A        -0.3152
     53 AC5        23.6700   17.9730   -3.8000 C.ar      1 T5A         0.1045
     54 AN7        23.9950   18.8390   -2.7860 N.2       1 T5A        -0.2958
     55 AC8        24.6180   18.1230   -1.8990 C.2       1 T5A         0.1123
     56 H1         25.7489   10.9753    9.0885 H         1 T5A         0.1011
     57 H2         24.3206    6.5214   10.0647 H         1 T5A         0.2259
     58 H3         28.0429   10.4791    9.5336 H         1 T5A         0.0296
     59 H4         28.4713    8.7898    9.0985 H         1 T5A         0.0296
     60 H5         28.2360    9.2415   10.8211 H         1 T5A         0.0296
     61 H6         23.8274   14.4192    6.6597 H         1 T5A         0.0648
     62 H7         24.5144   13.0179    5.7702 H         1 T5A         0.0648
     63 H8         22.3047   12.4163    6.6904 H         1 T5A         0.0650
     64 H9         22.1804   10.1946    8.6458 H         1 T5A         0.0959
     65 H10        24.0394   12.1464   10.1183 H         1 T5A         0.0344
     66 H11        22.3035   11.8005   10.4241 H         1 T5A         0.0344
     67 H12        23.1874   13.9812    8.9657 H         1 T5A         0.0622
     68 H13        20.9659   13.6042    9.4452 H         1 T5A         0.2099
     69 H14        25.4901   18.2171    0.6201 H         1 T5A         0.0648
     70 H15        25.2287   17.1513    2.0422 H         1 T5A         0.0648
     71 H16        26.9559   15.6332    1.2143 H         1 T5A         0.0651
     72 H17        24.9524   14.7097   -1.8463 H         1 T5A         0.0996
     73 H18        27.1059   16.1287   -2.7937 H         1 T5A         0.0676
     74 H19        28.2674   14.3227   -1.9318 H         1 T5A         0.2101
     75 H20        27.4605   17.7076   -1.0018 H         1 T5A         0.0648
     76 H21        28.7044   15.3650    0.1301 H         1 T5A         0.2100
     77 H22        23.1913   14.9181   -6.0800 H         1 T5A         0.0996
     78 H23        22.5555   20.1067   -5.0378 H         1 T5A         0.1820
     79 H24        22.0156   19.2136   -6.4848 H         1 T5A         0.1820
     80 H25        25.0036   18.5360   -0.9680 H         1 T5A         0.1349
@<TRIPOS>BOND
     1    1    2 am 
     2    1    3 am 
     3   13    1 1  
     4    2    8 2  
     5    3    4 2  
     6    3    5 am 
     7    5    6 am 
     8    6    7 2  
     9    8    6 1  
    10    8    9 1  
    11   10   11 1  
    12   11   12 1  
    13   12   13 1  
    14   14   13 1  
    15   15   14 1  
    16   11   15 1  
    17   15   16 1  
    18   17   18 ar 
    19   17   19 ar 
    20   20   17 1  
    21   17   21 1  
    22   10   20 1  
    23   21   22 1  
    24   22   23 ar 
    25   22   24 ar 
    26   22   25 1  
    27   25   26 1  
    28   26   27 ar 
    29   26   28 ar 
    30   26   29 1  
    31   29   30 1  
    32   30   31 ar 
    33   30   32 ar 
    34   30   33 1  
    35   33   34 1  
    36   34   35 ar 
    37   34   36 ar 
    38   34   37 1  
    39   37   38 1  
    40   38   39 1  
    41   39   40 1  
    42   39   44 1  
    43   40   41 1  
    44   41   42 1  
    45   41   46 1  
    46   42   43 1  
    47   42   44 1  
    48   44   45 1  
    49   46   47 1  
    50   46   55 1  
    51   47   48 ar 
    52   47   53 ar 
    53   48   49 ar 
    54   49   50 ar 
    55   50   51 ar 
    56   51   52 1  
    57   51   53 ar 
    58   53   54 1  
    59   54   55 2  
    60    2   56 1  
    61    5   57 1  
    62    9   58 1  
    63    9   59 1  
    64    9   60 1  
    65   10   61 1  
    66   10   62 1  
    67   11   63 1  
    68   13   64 1  
    69   14   65 1  
    70   14   66 1  
    71   15   67 1  
    72   16   68 1  
    73   38   69 1  
    74   38   70 1  
    75   39   71 1  
    76   41   72 1  
    77   42   73 1  
    78   43   74 1  
    79   44   75 1  
    80   45   76 1  
    81   49   77 1  
    82   52   78 1  
    83   52   79 1  
    84   55   80 1  
@<TRIPOS>SUBSTRUCTURE
     1 T5A         1

