### 
### Created by X-TOOL on Wed Dec 13 14:15:43 2017
### 

@<TRIPOS>MOLECULE
5ey0_ligand
   45    47     1     0     0
SMALL
GAST_HUCK


@<TRIPOS>ATOM
      1 PG         -7.3950   -0.2620  -21.1160 P.3       1 GTP         0.1879
      2 O1G        -7.5820    1.1870  -21.4910 O.co2     1 GTP        -0.6091
      3 O2G        -8.7320   -0.9440  -20.9480 O.co2     1 GTP        -0.6091
      4 O3G        -6.5930   -0.3730  -19.8360 O.co2     1 GTP        -0.6091
      5 O3B        -6.5660   -0.9810  -22.2850 O.3       1 GTP        -0.1546
      6 PB         -7.2280   -2.0010  -23.3350 P.3       1 GTP         0.3553
      7 O1B        -8.1960   -1.3170  -24.2640 O.co2     1 GTP        -0.5652
      8 O2B        -7.8510   -3.2110  -22.6670 O.co2     1 GTP        -0.5652
      9 O3A        -5.8720   -2.4790  -24.0930 O.3       1 GTP        -0.1171
     10 PA         -4.8690   -1.4800  -24.8710 P.3       1 GTP         0.3266
     11 O1A        -4.6060   -2.0270  -26.2540 O.co2     1 GTP        -0.5692
     12 O2A        -5.4050   -0.0710  -24.8850 O.co2     1 GTP        -0.5692
     13 O5'        -3.4770   -1.5070  -24.0380 O.3       1 GTP        -0.2441
     14 C5'        -3.2710   -0.6660  -22.9190 C.3       1 GTP         0.1131
     15 C4'        -2.0940    0.2690  -23.2020 C.3       1 GTP         0.1190
     16 O4'        -0.8900   -0.4740  -23.3420 O.3       1 GTP        -0.3347
     17 C3'        -2.2410    1.0270  -24.5100 C.3       1 GTP         0.1151
     18 O3'        -1.7180    2.3140  -24.2850 O.3       1 GTP        -0.3864
     19 C2'        -1.3300    0.2970  -25.4780 C.3       1 GTP         0.1407
     20 O2'        -0.8340    1.1470  -26.4790 O.3       1 GTP        -0.3835
     21 C1'        -0.2160   -0.1280  -24.5480 C.3       1 GTP         0.2218
     22 N9          0.5230   -1.3470  -24.9170 N.pl3     1 GTP        -0.0954
     23 C8          0.0350   -2.5970  -25.2100 C.2       1 GTP         0.1855
     24 N7          1.0690   -3.4460  -25.4180 N.2       1 GTP        -0.1929
     25 C5          2.2230   -2.7630  -25.2450 C.2       1 GTP         0.2558
     26 C6          3.5740   -3.1210  -25.3180 C.2       1 GTP         0.2628
     27 O6          3.9440   -4.2700  -25.5890 O.2       1 GTP        -0.3594
     28 N1          4.5370   -2.1540  -25.0840 N.am      1 GTP        -0.2478
     29 C2          4.1640   -0.8660  -24.7670 C.cat     1 GTP         0.2041
     30 N2          5.0980    0.0580  -24.5330 N.pl3     1 GTP        -0.3327
     31 N3          2.8350   -0.5210  -24.6890 N.pl3     1 GTP        -0.1901
     32 C4          1.8850   -1.4530  -24.9190 C.2       1 GTP         0.3268
     33 H1         -3.0486   -1.2797  -22.0336 H         1 GTP         0.0648
     34 H2         -4.1774   -0.0708  -22.7344 H         1 GTP         0.0648
     35 H3         -2.0048    0.9820  -22.3692 H         1 GTP         0.0651
     36 H4         -3.2816    1.0638  -24.8647 H         1 GTP         0.0648
     37 H5         -1.7893    2.8272  -25.0812 H         1 GTP         0.2100
     38 H6         -1.8343   -0.5653  -25.9385 H         1 GTP         0.0677
     39 H7         -0.3376    1.8507  -26.0780 H         1 GTP         0.2101
     40 H8          0.4894    0.7043  -24.4081 H         1 GTP         0.1021
     41 H9         -1.0193   -2.8637  -25.2663 H         1 GTP         0.1823
     42 H10         5.5065   -2.3912  -25.1453 H         1 GTP         0.1819
     43 H11         4.8213    1.0214  -24.2959 H         1 GTP         0.1774
     44 H12         6.0955   -0.1922  -24.5895 H         1 GTP         0.1774
     45 H13         2.5650    0.4453  -24.4559 H         1 GTP         0.2519
@<TRIPOS>BOND
     1    1    2 ar 
     2    1    3 ar 
     3    1    4 ar 
     4    1    5 1  
     5    5    6 1  
     6    6    7 ar 
     7    6    8 ar 
     8    6    9 1  
     9    9   10 1  
    10   10   11 ar 
    11   10   12 ar 
    12   10   13 1  
    13   13   14 1  
    14   14   15 1  
    15   15   16 1  
    16   15   17 1  
    17   16   21 1  
    18   17   18 1  
    19   17   19 1  
    20   19   20 1  
    21   19   21 1  
    22   21   22 1  
    23   22   23 1  
    24   22   32 1  
    25   23   24 2  
    26   24   25 1  
    27   25   26 1  
    28   25   32 2  
    29   26   27 2  
    30   26   28 am 
    31   28   29 ar 
    32   29   30 ar 
    33   29   31 ar 
    34   31   32 1  
    35   14   33 1  
    36   14   34 1  
    37   15   35 1  
    38   17   36 1  
    39   18   37 1  
    40   19   38 1  
    41   20   39 1  
    42   21   40 1  
    43   23   41 1  
    44   28   42 1  
    45   30   43 1  
    46   30   44 1  
    47   31   45 1  
@<TRIPOS>SUBSTRUCTURE
     1 GTP         1

