### 
### Created by X-TOOL on Fri Nov 18 11:57:14 2016
### 

@<TRIPOS>MOLECULE
1tkb_ligand
   43    44     1     0     0
SMALL
GAST_HUCK


@<TRIPOS>ATOM
      1 C1'        15.1510   71.6520   26.5620 C.ar      1 N1T        -0.0544
      2 C2'        14.1810   72.6030   26.0860 C.ar      1 N1T         0.0024
      3 CM2        12.8320   72.1330   25.7590 C.3       1 N1T        -0.0226
      4 N3'        14.4520   73.9070   26.1670 N.ar      1 N1T        -0.2946
      5 C4'        15.7290   74.3340   26.3680 C.ar      1 N1T         0.1036
      6 N4'        15.8540   75.6140   26.4240 N.pl3     1 N1T        -0.3266
      7 C5'        16.8080   73.4460   26.6790 C.ar      1 N1T         0.0089
      8 C6'        16.4900   72.1430   26.8570 C.ar      1 N1T        -0.0585
      9 C7'        18.1730   73.9330   27.1460 C.3       1 N1T         0.0514
     10 N3         19.0730   74.5190   26.0850 N.2       1 N1T        -0.2753
     11 C2         18.9490   75.7740   25.6560 C.2       1 N1T         0.1352
     12 S1         19.7640   76.0410   24.2240 S.3       1 N1T         0.1156
     13 C5         20.2260   74.4020   24.1630 C.2       1 N1T         0.1730
     14 C4         19.8890   73.7600   25.3340 C.2       1 N1T         0.1308
     15 CM4        19.9100   72.2680   25.5410 C.3       1 N1T         0.0228
     16 C6         20.5940   73.7700   22.8440 C.3       1 N1T         0.0829
     17 C7         21.6260   74.4860   22.0240 C.3       1 N1T         0.1135
     18 O7         20.8100   75.4840   21.4380 O.3       1 N1T        -0.2401
     19 PA         20.9480   76.2430   20.0660 P.3       1 N1T         0.3279
     20 O1A        19.5300   76.6030   19.7350 O.co2     1 N1T        -0.5556
     21 O2A        21.7440   75.5680   18.9890 O.co2     1 N1T        -0.5556
     22 O3A        21.7210   77.6040   20.3090 O.3       1 N1T        -0.1548
     23 PB         23.1120   78.2230   19.9440 P.3       1 N1T         0.2069
     24 O1B        22.8750   79.4920   20.6290 O.co2     1 N1T        -0.5891
     25 O2B        23.1200   78.0370   18.4620 O.co2     1 N1T        -0.5891
     26 O3B        24.1110   77.3580   20.5720 O.co2     1 N1T        -0.5891
     27 H1         14.8940   70.6075   26.6961 H         1 N1T         0.0515
     28 H2         12.2222   72.9807   25.4131 H         1 N1T         0.0404
     29 H3         12.3707   71.6908   26.6543 H         1 N1T         0.0404
     30 H4         12.8904   71.3749   24.9641 H         1 N1T         0.0404
     31 H5         16.7822   76.0348   26.5733 H         1 N1T         0.1744
     32 H6         15.0258   76.2174   26.3195 H         1 N1T         0.1744
     33 H7         17.2426   71.4547   27.2244 H         1 N1T         0.0613
     34 H8         18.6982   73.0775   27.5958 H         1 N1T         0.0553
     35 H9         18.0093   74.7063   27.9110 H         1 N1T         0.0553
     36 H10        18.3798   76.5399   26.1807 H         1 N1T         0.1655
     37 H11        20.6299   71.8115   24.8457 H         1 N1T         0.0599
     38 H12        18.9071   71.8575   25.3522 H         1 N1T         0.0599
     39 H13        20.2084   72.0456   26.5761 H         1 N1T         0.0599
     40 H14        19.6774   73.6992   22.2400 H         1 N1T         0.0773
     41 H15        20.9749   72.7593   23.0523 H         1 N1T         0.0773
     42 H16        22.0767   73.8280   21.2665 H         1 N1T         0.0687
     43 H17        22.4187   74.9204   22.6508 H         1 N1T         0.0687
@<TRIPOS>BOND
     1    8    1 ar 
     2    1    2 ar 
     3    2    4 ar 
     4    2    3 1  
     5    4    5 ar 
     6    5    7 ar 
     7    5    6 1  
     8    7    9 1  
     9    7    8 ar 
    10    9   10 1  
    11   10   14 1  
    12   10   11 2  
    13   11   12 1  
    14   12   13 1  
    15   13   16 1  
    16   13   14 2  
    17   14   15 1  
    18   16   17 1  
    19   17   18 1  
    20   18   19 1  
    21   19   22 1  
    22   19   21 ar 
    23   19   20 ar 
    24   22   23 1  
    25   23   26 ar 
    26   23   25 ar 
    27   23   24 ar 
    28    1   27 1  
    29    3   28 1  
    30    3   29 1  
    31    3   30 1  
    32    6   31 1  
    33    6   32 1  
    34    8   33 1  
    35    9   34 1  
    36    9   35 1  
    37   11   36 1  
    38   15   37 1  
    39   15   38 1  
    40   15   39 1  
    41   16   40 1  
    42   16   41 1  
    43   17   42 1  
    44   17   43 1  
@<TRIPOS>SUBSTRUCTURE
     1 N1T         1

