### 
### Created by X-TOOL on Fri Nov 18 17:16:32 2016
### 

@<TRIPOS>MOLECULE
4dcs_ligand
   41    43     1     0     0
SMALL
GAST_HUCK


@<TRIPOS>ATOM
      1 PB        -14.1270   -8.5680  -33.7830 P.3       1 GDP         0.2069
      2 O1B       -14.3870   -7.1050  -34.0250 O.co2     1 GDP        -0.5891
      3 O2B       -12.8860   -9.0490  -34.4980 O.co2     1 GDP        -0.5891
      4 O3B       -14.2200   -8.9980  -32.3420 O.co2     1 GDP        -0.5891
      5 O3A       -15.3160   -9.3420  -34.5400 O.3       1 GDP        -0.1548
      6 PA        -16.6060   -9.9890  -33.8310 P.3       1 GDP         0.3276
      7 O1A       -16.2960  -11.2950  -33.1390 O.co2     1 GDP        -0.5556
      8 O2A       -17.3480   -8.9170  -33.0590 O.co2     1 GDP        -0.5556
      9 O5'       -17.4690  -10.3900  -35.1320 O.3       1 GDP        -0.2436
     10 C5'       -17.8500   -9.4520  -36.1420 C.3       1 GDP         0.1132
     11 C4'       -18.9820  -10.0460  -36.9740 C.3       1 GDP         0.1190
     12 O4'       -18.4970  -11.1360  -37.7710 O.3       1 GDP        -0.3347
     13 C3'       -20.0910  -10.6060  -36.0910 C.3       1 GDP         0.1151
     14 O3'       -21.3500  -10.3140  -36.6900 O.3       1 GDP        -0.3864
     15 C2'       -19.9010  -12.1080  -36.1490 C.3       1 GDP         0.1407
     16 O2'       -21.1360  -12.8100  -35.9960 O.3       1 GDP        -0.3835
     17 C1'       -19.2920  -12.3110  -37.5300 C.3       1 GDP         0.2218
     18 N9        -18.4950  -13.5580  -37.5360 N.pl3     1 GDP        -0.0954
     19 C8        -17.5200  -13.8770  -36.6610 C.2       1 GDP         0.1855
     20 N7        -17.0000  -15.0980  -36.9440 N.2       1 GDP        -0.1929
     21 C5        -17.6400  -15.5800  -38.0240 C.2       1 GDP         0.2558
     22 C6        -17.5720  -16.8090  -38.8480 C.2       1 GDP         0.2628
     23 O6        -16.7650  -17.7250  -38.5940 O.2       1 GDP        -0.3594
     24 N1        -18.4230  -16.9180  -39.8780 N.am      1 GDP        -0.2478
     25 C2        -19.3140  -15.9570  -40.2010 C.cat     1 GDP         0.2041
     26 N2        -20.1210  -16.1570  -41.2780 N.pl3     1 GDP        -0.3327
     27 N3        -19.4130  -14.7970  -39.4920 N.pl3     1 GDP        -0.1901
     28 C4        -18.6290  -14.5630  -38.4110 C.2       1 GDP         0.3268
     29 H1        -16.9880   -9.2397  -36.7914 H         1 GDP         0.0648
     30 H2        -18.1911   -8.5194  -35.6687 H         1 GDP         0.0648
     31 H3        -19.3924   -9.2614  -37.6267 H         1 GDP         0.0651
     32 H4        -20.0352  -10.2174  -35.0635 H         1 GDP         0.0648
     33 H5        -22.0467  -10.6603  -36.1448 H         1 GDP         0.2100
     34 H6        -19.2047  -12.4417  -35.3656 H         1 GDP         0.0677
     35 H7        -21.7304  -12.5585  -36.6931 H         1 GDP         0.2101
     36 H8        -20.0819  -12.3880  -38.2917 H         1 GDP         0.1021
     37 H9        -17.1942  -13.2413  -35.8390 H         1 GDP         0.1823
     38 H10       -18.3965  -17.7497  -40.4326 H         1 GDP         0.1819
     39 H11       -20.8096  -15.4394  -41.5459 H         1 GDP         0.1774
     40 H12       -20.0434  -17.0260  -41.8254 H         1 GDP         0.1774
     41 H13       -20.0970  -14.0841  -39.7833 H         1 GDP         0.2519
@<TRIPOS>BOND
     1    1    2 ar 
     2    1    3 ar 
     3    1    4 ar 
     4    1    5 1  
     5    5    6 1  
     6    6    7 ar 
     7    6    8 ar 
     8    6    9 1  
     9    9   10 1  
    10   10   11 1  
    11   11   12 1  
    12   11   13 1  
    13   12   17 1  
    14   13   14 1  
    15   13   15 1  
    16   15   16 1  
    17   15   17 1  
    18   17   18 1  
    19   18   19 1  
    20   18   28 1  
    21   19   20 2  
    22   20   21 1  
    23   21   22 1  
    24   21   28 2  
    25   22   23 2  
    26   22   24 am 
    27   24   25 ar 
    28   25   26 ar 
    29   25   27 ar 
    30   27   28 1  
    31   10   29 1  
    32   10   30 1  
    33   11   31 1  
    34   13   32 1  
    35   14   33 1  
    36   15   34 1  
    37   16   35 1  
    38   17   36 1  
    39   19   37 1  
    40   24   38 1  
    41   26   39 1  
    42   26   40 1  
    43   27   41 1  
@<TRIPOS>SUBSTRUCTURE
     1 GDP         1

