### 
### Created by X-TOOL on Fri Nov 18 12:05:18 2016
### 

@<TRIPOS>MOLECULE
1nje_ligand
   32    33     1     0     0
SMALL
GAST_HUCK


@<TRIPOS>ATOM
      1 N1         14.9720   48.6210  -53.6410 N.am      1 DCM        -0.1675
      2 C2         13.9580   47.6620  -53.3390 C.2       1 DCM         0.2512
      3 N3         13.4530   47.6980  -52.0380 N.2       1 DCM        -0.2774
      4 C4         13.8990   48.5830  -51.1030 C.2       1 DCM         0.0850
      5 C5         14.9300   49.5440  -51.4400 C.2       1 DCM         0.0083
      6 C6         15.4140   49.5060  -52.7440 C.2       1 DCM         0.0794
      7 O2         13.4740   46.8020  -54.0790 O.2       1 DCM        -0.4066
      8 N4         13.3350   48.5740  -49.8930 N.pl3     1 DCM        -0.3156
      9 C1'        15.7710   48.7160  -54.8950 C.3       1 DCM         0.1859
     10 C2'        15.2940   48.0030  -56.1650 C.3       1 DCM         0.0339
     11 C3'        16.2370   48.5670  -57.2150 C.3       1 DCM         0.0892
     12 C4'        16.2670   50.0920  -56.9730 C.3       1 DCM         0.1159
     13 O4'        16.0570   50.0850  -55.4720 O.3       1 DCM        -0.3368
     14 O3'        17.5420   47.9390  -56.9360 O.3       1 DCM        -0.3889
     15 C5'        15.0230   50.7860  -57.5420 C.3       1 DCM         0.1071
     16 O5'        14.9310   50.8660  -58.9920 O.3       1 DCM        -0.2734
     17 P          15.6650   52.0000  -59.8200 P.3       1 DCM         0.2008
     18 O1P        17.0980   51.7610  -59.7950 O.co2     1 DCM        -0.5537
     19 O2P        15.2470   51.8460  -61.2140 O.co2     1 DCM        -0.5537
     20 O3P        15.2910   53.2800  -59.2480 O.co2     1 DCM        -0.5537
     21 H1         15.3066   50.2592  -50.7102 H         1 DCM         0.0373
     22 H2         16.1785   50.2216  -53.0429 H         1 DCM         0.1328
     23 H3         13.6559   49.2340  -49.1703 H         1 DCM         0.1833
     24 H4         12.5789   47.9071  -49.6822 H         1 DCM         0.1833
     25 H5         16.7370   48.2688  -54.6177 H         1 DCM         0.0999
     26 H6         14.2469   48.2507  -56.3935 H         1 DCM         0.0347
     27 H7         15.4016   46.9119  -56.0756 H         1 DCM         0.0347
     28 H8         15.9031   48.3405  -58.2383 H         1 DCM         0.0622
     29 H9         17.1991   50.5698  -57.3089 H         1 DCM         0.0649
     30 H10        17.4602   46.9953  -57.0091 H         1 DCM         0.2099
     31 H11        15.0038   51.8131  -57.1487 H         1 DCM         0.0639
     32 H12        14.1400   50.2384  -57.1807 H         1 DCM         0.0639
@<TRIPOS>BOND
     1    1    9 1  
     2    1    6 1  
     3    1    2 am 
     4    2    7 2  
     5    2    3 1  
     6    3    4 2  
     7    4    8 1  
     8    4    5 1  
     9    5    6 2  
    10    9   13 1  
    11    9   10 1  
    12   10   11 1  
    13   11   14 1  
    14   11   12 1  
    15   12   15 1  
    16   12   13 1  
    17   15   16 1  
    18   16   17 1  
    19   17   20 ar 
    20   17   19 ar 
    21   17   18 ar 
    22    5   21 1  
    23    6   22 1  
    24    8   23 1  
    25    8   24 1  
    26    9   25 1  
    27   10   26 1  
    28   10   27 1  
    29   11   28 1  
    30   12   29 1  
    31   14   30 1  
    32   15   31 1  
    33   15   32 1  
@<TRIPOS>SUBSTRUCTURE
     1 DCM         1

