### 
### Created by X-TOOL on Fri Nov 18 17:48:41 2016
### 

@<TRIPOS>MOLECULE
4p5d_ligand
   49    53     1     0     0
SMALL
GAST_HUCK


@<TRIPOS>ATOM
      1 C1         13.3030   77.0120   -5.0830 C.ar      1 N6P        -0.0397
      2 C2         14.1900   78.0600   -5.3350 C.ar      1 N6P        -0.0133
      3 C3         15.2870   78.2730   -4.4860 C.ar      1 N6P        -0.0523
      4 C4         16.1710   79.3190   -4.7300 C.ar      1 N6P        -0.0599
      5 C5         15.9570   80.1590   -5.8230 C.ar      1 N6P        -0.0601
      6 C6         14.8610   79.9540   -6.6640 C.ar      1 N6P        -0.0528
      7 C7         13.9820   78.9040   -6.4180 C.ar      1 N6P        -0.0159
      8 C8         12.8900   78.7000   -7.2630 C.ar      1 N6P        -0.0518
      9 C9         12.0140   77.6550   -7.0170 C.ar      1 N6P        -0.0493
     10 C10        12.2420   76.7790   -5.9430 C.ar      1 N6P         0.0049
     11 C11        11.2640   75.6680   -5.6110 C.ar      1 N6P         0.0688
     12 N1         11.4900   74.8880   -4.5270 N.ar      1 N6P        -0.2777
     13 C12        10.6380   73.9440   -4.1450 C.ar      1 N6P         0.0692
     14 N2          9.4940   73.6880   -4.8140 N.ar      1 N6P        -0.2526
     15 C13         9.1700   74.4340   -5.9110 C.ar      1 N6P         0.1750
     16 C14        10.0480   75.4590   -6.3440 C.ar      1 N6P         0.0912
     17 N3          9.4820   76.0240   -7.4460 N.2       1 N6P        -0.2894
     18 C15         8.3060   75.3940   -7.6880 C.2       1 N6P         0.1176
     19 N4          8.1060   74.4390   -6.7840 N.pl3     1 N6P        -0.1856
     20 C16         7.0080   73.6060   -6.6740 C.3       1 N6P         0.2020
     21 O1          5.9820   74.0750   -7.8200 O.3       1 N6P        -0.3364
     22 C17         6.4000   73.8970   -5.5030 C.3       1 N6P         0.1386
     23 O2          6.0390   72.7020   -4.6960 O.3       1 N6P        -0.3836
     24 C18         5.1130   74.7230   -5.7790 C.3       1 N6P         0.1149
     25 O3          3.9880   74.1300   -5.3440 O.3       1 N6P        -0.3864
     26 C19         5.0320   74.8540   -7.3250 C.3       1 N6P         0.1182
     27 C20         5.2130   76.3020   -7.7460 C.3       1 N6P         0.1072
     28 O4          5.2640   76.2970   -9.1890 O.3       1 N6P        -0.2734
     29 P1          5.6900   77.6180   -9.9740 P.3       1 N6P         0.2008
     30 O5          7.0560   78.0130   -9.5710 O.co2     1 N6P        -0.5537
     31 O6          5.6200   77.2900  -11.4670 O.co2     1 N6P        -0.5537
     32 O7          4.7260   78.7280   -9.6480 O.co2     1 N6P        -0.5537
     33 H          13.4444   76.3800   -4.2138 H         1 N6P         0.0674
     34 H          15.4462   77.6193   -3.6361 H         1 N6P         0.0633
     35 H          17.0200   79.4802   -4.0756 H         1 N6P         0.0621
     36 H          16.6440   80.9740   -6.0203 H         1 N6P         0.0627
     37 H          14.6952   80.6131   -7.5085 H         1 N6P         0.0626
     38 H          12.7276   79.3574   -8.1095 H         1 N6P         0.0626
     39 H          11.1497   77.5130   -7.6557 H         1 N6P         0.0639
     40 H          10.8697   73.3573   -3.2634 H         1 N6P         0.1038
     41 H           7.6250   75.6346   -8.5030 H         1 N6P         0.1393
     42 H           7.2787   72.5429   -6.7544 H         1 N6P         0.0997
     43 H           7.0934   74.5095   -4.9080 H         1 N6P         0.0676
     44 H           5.4435   72.1537   -5.1931 H         1 N6P         0.2101
     45 H           5.2015   75.7134   -5.3087 H         1 N6P         0.0648
     46 H           3.8853   73.2911   -5.7780 H         1 N6P         0.2100
     47 H           4.0502   74.5043   -7.6769 H         1 N6P         0.0650
     48 H           6.1491   76.7055   -7.3325 H         1 N6P         0.0639
     49 H           4.3656   76.9099   -7.3963 H         1 N6P         0.0639
@<TRIPOS>BOND
     1    1    2 ar 
     2    1   10 ar 
     3    2    3 ar 
     4    2    7 ar 
     5    3    4 ar 
     6    4    5 ar 
     7    5    6 ar 
     8    6    7 ar 
     9    7    8 ar 
    10    8    9 ar 
    11    9   10 ar 
    12   10   11 1  
    13   11   12 ar 
    14   11   16 ar 
    15   12   13 ar 
    16   13   14 ar 
    17   14   15 ar 
    18   15   16 ar 
    19   15   19 1  
    20   16   17 1  
    21   17   18 2  
    22   18   19 1  
    23   19   20 1  
    24   20   21 1  
    25   20   22 1  
    26   21   26 1  
    27   22   23 1  
    28   22   24 1  
    29   24   25 1  
    30   24   26 1  
    31   26   27 1  
    32   27   28 1  
    33   28   29 1  
    34   29   30 ar 
    35   29   31 ar 
    36   29   32 ar 
    37    1   33 1  
    38    3   34 1  
    39    4   35 1  
    40    5   36 1  
    41    6   37 1  
    42    8   38 1  
    43    9   39 1  
    44   13   40 1  
    45   18   41 1  
    46   20   42 1  
    47   22   43 1  
    48   23   44 1  
    49   24   45 1  
    50   25   46 1  
    51   26   47 1  
    52   27   48 1  
    53   27   49 1  
@<TRIPOS>SUBSTRUCTURE
     1 N6P         1

