### 
### Created by X-TOOL on Fri Nov 18 17:58:20 2016
### 

@<TRIPOS>MOLECULE
4xxh_ligand
   48    49     1     0     0
SMALL
GAST_HUCK


@<TRIPOS>ATOM
      1 C1         27.2140  -11.2770   28.2260 C.3       1 T6P         0.1909
      2 C2         27.3310  -12.4480   29.2020 C.3       1 T6P         0.1342
      3 C3         26.5860  -13.6740   28.6720 C.3       1 T6P         0.1141
      4 C4         25.1650  -13.3120   28.2730 C.3       1 T6P         0.1119
      5 C5         25.1760  -12.1310   27.3080 C.3       1 T6P         0.1130
      6 C6         23.7870  -11.6710   26.9330 C.3       1 T6P         0.0730
      7 O1         27.9460  -11.5850   27.0470 O.3       1 T6P        -0.3174
      8 O2         28.7000  -12.7590   29.4320 O.3       1 T6P        -0.3841
      9 O3         26.5130  -14.6790   29.6740 O.3       1 T6P        -0.3864
     10 O4         24.5580  -14.4180   27.6400 O.3       1 T6P        -0.3865
     11 O5         25.8480  -11.0200   27.9340 O.3       1 T6P        -0.3404
     12 O6         23.8300  -10.5540   26.0600 O.3       1 T6P        -0.3924
     13 C7         27.9920  -10.5490   26.0820 C.3       1 T6P         0.1909
     14 C8         28.3950  -11.1290   24.7220 C.3       1 T6P         0.1342
     15 C9         29.8670  -11.5450   24.6870 C.3       1 T6P         0.1141
     16 C10        30.7420  -10.4030   25.1810 C.3       1 T6P         0.1122
     17 C11        30.2740  -10.0040   26.5800 C.3       1 T6P         0.1176
     18 C12        31.0920   -8.9000   27.1980 C.3       1 T6P         0.1071
     19 O7         27.5850  -12.2410   24.3680 O.3       1 T6P        -0.3841
     20 O8         30.2610  -11.8560   23.3550 O.3       1 T6P        -0.3864
     21 O9         32.1110  -10.7990   25.1520 O.3       1 T6P        -0.3865
     22 O10        28.9060   -9.5480   26.5130 O.3       1 T6P        -0.3401
     23 O11        31.1930   -7.8380   26.2410 O.3       1 T6P        -0.2734
     24 P1         31.0520   -6.3180   26.7210 P.3       1 T6P         0.2008
     25 O12        32.1510   -6.0840   27.7270 O.co2     1 T6P        -0.5537
     26 O13        29.7010   -6.1910   27.3130 O.co2     1 T6P        -0.5537
     27 O14        31.3050   -5.4380   25.4950 O.co2     1 T6P        -0.5537
     28 H1         27.6485  -10.3787   28.6888 H         1 T6P         0.0938
     29 H2         26.8748  -12.1513   30.1579 H         1 T6P         0.0671
     30 H3         27.1231  -14.0667   27.7961 H         1 T6P         0.0648
     31 H4         24.5919  -13.0433   29.1726 H         1 T6P         0.0647
     32 H5         25.7147  -12.4254   26.3953 H         1 T6P         0.0647
     33 H6         23.2440  -11.3899   27.8474 H         1 T6P         0.0584
     34 H7         23.2596  -12.4963   26.4324 H         1 T6P         0.0584
     35 H8         29.1017  -13.0369   28.6172 H         1 T6P         0.2101
     36 H9         27.3915  -14.9230   29.9408 H         1 T6P         0.2100
     37 H10        23.6672  -14.1933   27.3980 H         1 T6P         0.2100
     38 H11        24.2806   -9.8358   26.4885 H         1 T6P         0.2095
     39 H12        26.9927  -10.0985   25.9899 H         1 T6P         0.0938
     40 H13        28.2454  -10.3424   23.9677 H         1 T6P         0.0671
     41 H14        30.0098  -12.4262   25.3298 H         1 T6P         0.0648
     42 H15        30.6185   -9.5390   24.5116 H         1 T6P         0.0647
     43 H16        30.3336  -10.8900   27.2291 H         1 T6P         0.0650
     44 H17        32.0957   -9.2739   27.4486 H         1 T6P         0.0639
     45 H18        30.5982   -8.5349   28.1106 H         1 T6P         0.0639
     46 H19        27.7314  -12.9475   24.9860 H         1 T6P         0.2101
     47 H20        30.1443  -11.0906   22.8046 H         1 T6P         0.2100
     48 H21        32.3521  -11.0363   24.2642 H         1 T6P         0.2100
@<TRIPOS>BOND
     1    1    2 1  
     2    1    7 1  
     3    1   11 1  
     4    2    3 1  
     5    2    8 1  
     6    3    4 1  
     7    3    9 1  
     8    4    5 1  
     9    4   10 1  
    10    5    6 1  
    11    5   11 1  
    12    6   12 1  
    13    7   13 1  
    14   13   14 1  
    15   13   22 1  
    16   14   15 1  
    17   14   19 1  
    18   15   16 1  
    19   15   20 1  
    20   16   17 1  
    21   16   21 1  
    22   17   18 1  
    23   17   22 1  
    24   18   23 1  
    25   23   24 1  
    26   24   25 ar 
    27   24   26 ar 
    28   24   27 ar 
    29    1   28 1  
    30    2   29 1  
    31    3   30 1  
    32    4   31 1  
    33    5   32 1  
    34    6   33 1  
    35    6   34 1  
    36    8   35 1  
    37    9   36 1  
    38   10   37 1  
    39   12   38 1  
    40   13   39 1  
    41   14   40 1  
    42   15   41 1  
    43   16   42 1  
    44   17   43 1  
    45   18   44 1  
    46   18   45 1  
    47   19   46 1  
    48   20   47 1  
    49   21   48 1  
@<TRIPOS>SUBSTRUCTURE
     1 T6P         1

