### 
### Created by X-TOOL on Fri Nov 18 13:03:09 2016
### 

@<TRIPOS>MOLECULE
1kc7_ligand
   12    11     1     0     0
SMALL
GAST_HUCK


@<TRIPOS>ATOM
      1 C1         12.2140    8.4000    4.2270 C.2       1 PPR         0.1263
      2 O1         12.8380    8.8970    3.2100 O.co2     1 PPR        -0.5464
      3 O2'        10.9970    8.4700    4.3360 O.co2     1 PPR        -0.5464
      4 C2         13.0990    7.7160    5.2690 C.2       1 PPR         0.1877
      5 C3         14.4390    7.5000    5.2770 C.3       1 PPR         0.1020
      6 O2         12.4330    7.2480    6.3020 O.2       1 PPR        -0.3562
      7 P          14.5980    5.6080    4.7980 P.3       1 PPR         0.0770
      8 O1P        15.9860    5.4370    4.1140 O.co2     1 PPR        -0.5605
      9 O2P        13.4770    5.3690    3.9050 O.co2     1 PPR        -0.5605
     10 O3P        14.5940    4.8220    6.0460 O.co2     1 PPR        -0.5605
     11 H1         14.8622    7.6902    6.2743 H         1 PPR         0.0688
     12 H2         14.9446    8.1371    4.5365 H         1 PPR         0.0688
@<TRIPOS>BOND
     1    4    1 1  
     2    1    3 ar 
     3    1    2 ar 
     4    4    6 2  
     5    4    5 1  
     6    5    7 1  
     7    7   10 ar 
     8    7    9 ar 
     9    7    8 ar 
    10    5   11 1  
    11    5   12 1  
@<TRIPOS>SUBSTRUCTURE
     1 PPR         1

