### 
### Created by X-TOOL on Fri Nov 18 14:21:47 2016
### 

@<TRIPOS>MOLECULE
2c94_ligand
   53    54     1     0     0
SMALL
GAST_HUCK


@<TRIPOS>ATOM
      1 O2P        47.2760    3.5220   -1.4210 O.co2     1 TSF        -0.5584
      2 P          47.2250    3.6840    0.0730 P.3       1 TSF         0.1320
      3 O3P        48.5930    3.6690    0.7200 O.co2     1 TSF        -0.5584
      4 O1P        46.3210    4.8010    0.5490 O.co2     1 TSF        -0.5584
      5 C19        46.4410    2.1600    0.6650 C.3       1 TSF         0.3142
      6 F1         45.1980    2.1080    0.2250 F         1 TSF        -0.1865
      7 F2         47.1280    1.1390    0.1860 F         1 TSF        -0.1865
      8 C18        46.4300    2.1160    2.1900 C.3       1 TSF         0.0269
      9 C17        46.4380    0.6850    2.7280 C.3       1 TSF        -0.0440
     10 C16        45.4590    0.5340    3.8870 C.3       1 TSF        -0.0291
     11 C15        44.0430    0.6770    3.3510 C.3       1 TSF         0.0435
     12 N5         43.0900    0.4180    4.4260 N.am      1 TSF        -0.2348
     13 C9         42.6070   -0.7460    4.8740 C.2       1 TSF         0.1488
     14 C4         42.8660   -2.1430    4.4590 C.2       1 TSF         0.2001
     15 O2         43.6580   -2.4280    3.5310 O.2       1 TSF        -0.4201
     16 N3         42.1900   -3.0890    5.1320 N.am      1 TSF        -0.1906
     17 C6         42.4790    1.3160    5.2040 C.2       1 TSF         0.2994
     18 O4         42.6650    2.5850    5.0870 O.2       1 TSF        -0.4081
     19 N7         41.6320    0.8430    6.1190 N.am      1 TSF        -0.1806
     20 C8         41.6550   -0.4910    5.9700 C.2       1 TSF         0.1990
     21 N1         41.0700   -1.5420    6.5470 N.am      1 TSF        -0.1945
     22 C2         41.3310   -2.7950    6.1430 C.2       1 TSF         0.3156
     23 O1         40.7380   -3.7180    6.7320 O.2       1 TSF        -0.3876
     24 C10        40.8930    1.7060    7.0310 C.3       1 TSF         0.0889
     25 C11        40.2270    1.0250    8.2130 C.3       1 TSF         0.1096
     26 O19        41.0720    0.0980    8.9140 O.3       1 TSF        -0.3865
     27 C12        39.5550    2.0120    9.1620 C.3       1 TSF         0.1114
     28 O21        38.1710    1.7020    8.9690 O.3       1 TSF        -0.3865
     29 C13        39.7630    3.5190    8.9130 C.3       1 TSF         0.1065
     30 O23        41.1230    3.9190    9.1400 O.3       1 TSF        -0.3869
     31 C14        38.8720    4.3650    9.8230 C.3       1 TSF         0.0727
     32 O26        39.0540    3.9240   11.1800 O.3       1 TSF        -0.3924
     33 H1         45.5248    2.6253    2.5523 H         1 TSF         0.0338
     34 H2         47.3210    2.6403    2.5657 H         1 TSF         0.0338
     35 H3         47.4511    0.4374    3.0778 H         1 TSF         0.0268
     36 H4         46.1499   -0.0048    1.9211 H         1 TSF         0.0268
     37 H5         45.6511    1.3146    4.6379 H         1 TSF         0.0288
     38 H6         45.5817   -0.4569    4.3485 H         1 TSF         0.0288
     39 H7         43.8837   -0.0457    2.5372 H         1 TSF         0.0564
     40 H8         43.8965    1.6979    2.9686 H         1 TSF         0.0564
     41 H9         42.3242   -4.0471    4.8790 H         1 TSF         0.2244
     42 H10        40.4240   -1.3932    7.2957 H         1 TSF         0.2306
     43 H11        40.1078    2.2124    6.4504 H         1 TSF         0.0624
     44 H12        41.5956    2.4536    7.4277 H         1 TSF         0.0624
     45 H13        39.4154    0.4195    7.7833 H         1 TSF         0.0646
     46 H14        40.5886   -0.2857    9.6361 H         1 TSF         0.2100
     47 H15        39.8710    1.7940   10.1928 H         1 TSF         0.0647
     48 H16        38.0157    0.7939    9.2007 H         1 TSF         0.2100
     49 H17        39.5027    3.7296    7.8652 H         1 TSF         0.0643
     50 H18        41.2093    4.8508    8.9765 H         1 TSF         0.2100
     51 H19        37.8189    4.2405    9.5307 H         1 TSF         0.0584
     52 H20        39.1537    5.4248    9.7366 H         1 TSF         0.0584
     53 H21        38.8117    3.0080   11.2493 H         1 TSF         0.2095
@<TRIPOS>BOND
     1    1    2 ar 
     2    2    3 ar 
     3    2    4 ar 
     4    2    5 1  
     5    5    6 1  
     6    5    7 1  
     7    5    8 1  
     8    8    9 1  
     9    9   10 1  
    10   10   11 1  
    11   11   12 1  
    12   12   13 am 
    13   12   17 am 
    14   13   14 1  
    15   13   20 2  
    16   14   15 2  
    17   14   16 am 
    18   16   22 am 
    19   17   18 2  
    20   17   19 am 
    21   19   20 am 
    22   19   24 1  
    23   20   21 am 
    24   21   22 am 
    25   22   23 2  
    26   24   25 1  
    27   25   26 1  
    28   25   27 1  
    29   27   28 1  
    30   27   29 1  
    31   29   30 1  
    32   29   31 1  
    33   31   32 1  
    34    8   33 1  
    35    8   34 1  
    36    9   35 1  
    37    9   36 1  
    38   10   37 1  
    39   10   38 1  
    40   11   39 1  
    41   11   40 1  
    42   16   41 1  
    43   21   42 1  
    44   24   43 1  
    45   24   44 1  
    46   25   45 1  
    47   26   46 1  
    48   27   47 1  
    49   28   48 1  
    50   29   49 1  
    51   30   50 1  
    52   31   51 1  
    53   31   52 1  
    54   32   53 1  
@<TRIPOS>SUBSTRUCTURE
     1 TSF         1

