### 
### Created by X-TOOL on Fri Nov 18 15:52:13 2016
### 

@<TRIPOS>MOLECULE
3h8b_ligand
  153   158     1     0     0
SMALL
GAST_HUCK


@<TRIPOS>ATOM
      1 C1          3.2190   -4.8430    6.0950 C.3       1 NSY         0.0467
      2 C2          2.0850   -4.5470    6.7180 C.2       1 NSY         0.1803
      3 O3          1.6510   -3.4260    6.8170 O.2       1 NSY        -0.3967
      4 C4          3.8220   -6.6690    1.9450 C.3       1 NSY        -0.0215
      5 C5          4.9600   -6.4010    3.0020 C.2       1 NSY        -0.0949
      6 C6          4.6670   -5.8160    4.2790 C.2       1 NSY        -0.0931
      7 C7          3.2370   -5.4440    4.6930 C.3       1 NSY        -0.0075
      8 C8          1.9980   -5.7040    3.6840 C.3       1 NSY        -0.0397
      9 C9          2.3640   -6.3130    2.3340 C.3       1 NSY        -0.0414
     10 C10         5.3810   -8.5000   -2.0260 C.3       1 NSY        -0.0530
     11 C11         3.2140   -7.5400   -0.5650 C.3       1 NSY        -0.0484
     12 C12         4.2050   -7.2650    0.6050 C.3       1 NSY        -0.0317
     13 C13         3.8830   -8.1630   -1.8530 C.3       1 NSY        -0.0527
     14 C14         5.8290   -7.6190    0.4110 C.3       1 NSY        -0.0484
     15 C15         6.3650   -8.2210   -0.8650 C.3       1 NSY        -0.0527
     16 N16         1.4520   -5.7410    7.3240 N.am      1 NSY        -0.2640
     17 C17         0.2690   -5.8730    8.1140 C.3       1 NSY         0.1373
     18 C18         0.4080   -7.3090    8.4670 C.2       1 NSY         0.2057
     19 O19         1.0870   -8.1420    7.7260 O.2       1 NSY        -0.3942
     20 C20        -0.9400   -5.6350    7.3670 C.3       1 NSY         0.0043
     21 C22        -5.3240   -3.4670    2.7760 C.3       1 NSY         0.0709
     22 C23        -5.1570   -2.9890    1.5860 C.ar      1 NSY        -0.0233
     23 C24        -4.3620   -1.7430    1.2910 C.ar      1 NSY        -0.0566
     24 C25        -5.7840   -3.6990    0.4520 C.ar      1 NSY        -0.0566
     25 C26        -4.1590   -1.2380   -0.0660 C.ar      1 NSY        -0.0596
     26 C27        -5.5910   -3.1890   -0.9580 C.ar      1 NSY        -0.0596
     27 C28        -4.7680   -1.9300   -1.2490 C.ar      1 NSY        -0.0239
     28 N29        -0.2560   -7.6530    9.7560 N.am      1 NSY        -0.2636
     29 C30        -0.1800   -8.9400   10.3270 C.3       1 NSY         0.1311
     30 C31        -0.5600  -10.2780    9.3930 C.3       1 NSY        -0.0092
     31 C32        -1.8460  -10.4580    8.4630 C.3       1 NSY        -0.0156
     32 C33        -3.1900  -10.4680    9.2210 C.3       1 NSY         0.0627
     33 N34        -4.4900  -10.6280    8.5320 N.pl3     1 NSY        -0.2723
     34 C35        -5.7750  -10.4070    9.2310 C.cat     1 NSY         0.2882
     35 N36        -6.1100  -11.0180   10.4230 N.pl3     1 NSY        -0.2849
     36 N37        -6.7570   -9.5640    8.7560 N.pl3     1 NSY        -0.2849
     37 C38        -0.9180   -9.1040   11.5780 C.2       1 NSY         0.2039
     38 O39        -0.5700  -10.0300   12.3160 O.2       1 NSY        -0.3944
     39 N40        -1.9020   -8.2380   11.8580 N.am      1 NSY        -0.2636
     40 C41        -2.6740   -8.3110   13.0950 C.3       1 NSY         0.1326
     41 C42        -3.6910   -9.4910   12.8320 C.2       1 NSY         0.2018
     42 O43        -4.4240   -9.4710   11.8860 O.2       1 NSY        -0.3945
     43 C44        -3.5480   -7.0460   13.4250 C.3       1 NSY        -0.0030
     44 C45        -4.3000   -7.2990   14.7930 C.3       1 NSY        -0.0202
     45 C46        -3.5580   -7.0930   16.1120 C.3       1 NSY        -0.0418
     46 C47        -5.8390   -7.7690   14.8120 C.2       1 NSY        -0.0954
     47 C48        -4.2740   -7.3350   17.4240 C.3       1 NSY        -0.0446
     48 C49        -6.5010   -7.9930   16.1200 C.2       1 NSY        -0.0984
     49 C50        -5.7620   -7.7900   17.4090 C.3       1 NSY        -0.0363
     50 C52        -2.9550  -13.5160   13.4070 C.3       1 NSY        -0.0392
     51 C53        -2.9040  -13.9990   14.9580 C.3       1 NSY        -0.0501
     52 C54        -1.6780  -14.8390   15.3720 C.3       1 NSY        -0.0528
     53 C55        -0.6130  -15.1710   14.3620 C.3       1 NSY        -0.0530
     54 C56        -0.7030  -14.7050   12.9310 C.3       1 NSY        -0.0528
     55 C57        -1.8610  -13.8760   12.4340 C.3       1 NSY        -0.0501
     56 C58        -4.0100  -12.7410   12.8920 C.3       1 NSY        -0.0299
     57 C59        -4.6700  -11.6990   13.6610 C.3       1 NSY         0.0312
     58 N60        -3.6630  -10.5480   13.8560 N.am      1 NSY        -0.2850
     59 C62        -4.5050   -1.4220   -2.5380 C.ar      1 NSY        -0.0219
     60 C63        -3.6110   -0.1660   -2.7300 C.ar      1 NSY        -0.0556
     61 C64        -5.0850   -2.0480   -3.8130 C.ar      1 NSY        -0.0556
     62 C65        -3.3290    0.3750   -4.1140 C.ar      1 NSY        -0.0622
     63 C66        -4.7970   -1.4910   -5.1290 C.ar      1 NSY        -0.0622
     64 C67        -3.9280   -0.2870   -5.2670 C.ar      1 NSY        -0.0626
     65 C68        -4.2830   -3.9460    3.5910 C.2       1 NSY         0.1893
     66 C69        -1.8170   -4.4650    7.6230 C.2       1 NSY        -0.0923
     67 C70        -2.5330   -3.7690    6.8480 C.2       1 NSY        -0.0766
     68 C71        -2.6960   -3.9720    5.3500 C.3       1 NSY         0.0480
     69 N72        -3.8750   -3.2960    4.6040 N.am      1 NSY        -0.2774
     70 O73        -3.8720   -4.9570    3.2030 O.2       1 NSY        -0.3939
     71 H1          3.7493   -5.5565    6.7428 H         1 NSY         0.0525
     72 H2          3.7917   -3.9057    6.0358 H         1 NSY         0.0525
     73 H3          3.9522   -5.6599    1.5269 H         1 NSY         0.0426
     74 H4          5.9881   -6.6648    2.7585 H         1 NSY         0.0453
     75 H5          5.4837   -5.6305    4.9751 H         1 NSY         0.0454
     76 H6          3.0591   -6.4437    5.1160 H         1 NSY         0.0448
     77 H7          1.5052   -4.7385    3.4972 H         1 NSY         0.0290
     78 H8          1.2928   -6.3852    4.1825 H         1 NSY         0.0290
     79 H9          1.7907   -7.2485    2.2562 H         1 NSY         0.0289
     80 H10         2.0104   -5.6018    1.5729 H         1 NSY         0.0289
     81 H11         5.7395   -7.9267   -2.8936 H         1 NSY         0.0265
     82 H12         5.4433   -9.5759   -2.2462 H         1 NSY         0.0265
     83 H13         2.7432   -6.5871   -0.8485 H         1 NSY         0.0270
     84 H14         2.4429   -8.2376   -0.2062 H         1 NSY         0.0270
     85 H15         4.0063   -8.2745    0.9940 H         1 NSY         0.0323
     86 H16         3.3526   -9.1115   -2.0231 H         1 NSY         0.0265
     87 H17         3.6495   -7.4612   -2.6672 H         1 NSY         0.0265
     88 H18         6.0907   -8.3203    1.2170 H         1 NSY         0.0270
     89 H19         6.3710   -6.6731    0.5576 H         1 NSY         0.0270
     90 H20         7.1328   -7.5336   -1.2496 H         1 NSY         0.0265
     91 H21         6.8321   -9.1807   -0.5988 H         1 NSY         0.0265
     92 H22         1.9341   -6.5999    7.1510 H         1 NSY         0.1884
     93 H23         0.2888   -5.2194    8.9985 H         1 NSY         0.0821
     94 H24        -1.5689   -6.5258    7.5113 H         1 NSY         0.0435
     95 H25        -0.6386   -5.5659    6.3114 H         1 NSY         0.0435
     96 H26        -6.0229   -4.3088    2.6622 H         1 NSY         0.0662
     97 H27        -5.8071   -2.6647    3.3529 H         1 NSY         0.0662
     98 H28        -3.9226   -1.1988    2.1191 H         1 NSY         0.0564
     99 H29        -6.3821   -4.5852    0.6310 H         1 NSY         0.0564
    100 H30        -3.5584   -0.3487   -0.2196 H         1 NSY         0.0610
    101 H31        -6.0455   -3.7266   -1.7823 H         1 NSY         0.0610
    102 H32        -0.7750   -6.9444   10.2340 H         1 NSY         0.1883
    103 H33         0.8849   -9.0515   10.5789 H         1 NSY         0.0800
    104 H34        -0.6012  -11.1181   10.1019 H         1 NSY         0.0313
    105 H35         0.2995  -10.4086    8.7191 H         1 NSY         0.0313
    106 H36        -1.7489  -11.4120    7.9240 H         1 NSY         0.0301
    107 H37        -1.8658   -9.6289    7.7404 H         1 NSY         0.0301
    108 H38        -3.2449   -9.5097    9.7583 H         1 NSY         0.0689
    109 H39        -3.1254  -11.2921    9.9467 H         1 NSY         0.0689
    110 H40        -4.5004  -10.9006    7.5388 H         1 NSY         0.2642
    111 H41        -7.0211  -10.8243   10.8628 H         1 NSY         0.2615
    112 H42        -5.4489  -11.6674   10.8725 H         1 NSY         0.2615
    113 H43        -6.6149   -9.0540    7.8725 H         1 NSY         0.2615
    114 H44        -7.6328   -9.4441    9.2847 H         1 NSY         0.2615
    115 H45        -2.1144   -7.5178   11.1975 H         1 NSY         0.1883
    116 H46        -2.0059   -8.5261   13.9420 H         1 NSY         0.0801
    117 H47        -4.2824   -6.8827   12.6225 H         1 NSY         0.0335
    118 H48        -2.9009   -6.1611   13.5154 H         1 NSY         0.0335
    119 H49        -3.9799   -8.3512   14.7731 H         1 NSY         0.0425
    120 H50        -3.2148   -6.0480   16.1246 H         1 NSY         0.0289
    121 H51        -2.6871   -7.7648   16.0958 H         1 NSY         0.0289
    122 H52        -6.3843   -7.9198   13.8815 H         1 NSY         0.0453
    123 H53        -4.2327   -6.3929   17.9903 H         1 NSY         0.0286
    124 H54        -3.7072   -8.1103   17.9602 H         1 NSY         0.0286
    125 H55        -7.5424   -8.3106   16.1449 H         1 NSY         0.0450
    126 H56        -6.3249   -7.0330   17.9747 H         1 NSY         0.0388
    127 H57        -5.7994   -8.7504   17.9439 H         1 NSY         0.0388
    128 H58        -3.4990  -14.4376   13.1528 H         1 NSY         0.0301
    129 H59        -3.8038  -14.6015   15.1512 H         1 NSY         0.0268
    130 H60        -2.9226  -13.0990   15.5902 H         1 NSY         0.0268
    131 H61        -2.0637  -15.7965   15.7519 H         1 NSY         0.0265
    132 H62        -1.1815  -14.2939   16.1883 H         1 NSY         0.0265
    133 H63        -0.5525  -16.2687   14.3262 H         1 NSY         0.0265
    134 H64         0.3283  -14.7647   14.7606 H         1 NSY         0.0265
    135 H65        -0.6842  -15.6123   12.3094 H         1 NSY         0.0265
    136 H66         0.2041  -14.1122   12.7421 H         1 NSY         0.0265
    137 H67        -1.4446  -12.9333   12.0495 H         1 NSY         0.0268
    138 H68        -2.3295  -14.4333   11.6094 H         1 NSY         0.0268
    139 H69        -4.7982  -13.4527   12.6054 H         1 NSY         0.0287
    140 H70        -3.6144  -12.2494   11.9910 H         1 NSY         0.0287
    141 H71        -4.9796  -12.0951   14.6394 H         1 NSY         0.0520
    142 H72        -5.5537  -11.3348   13.1165 H         1 NSY         0.0520
    143 H73        -3.0303  -10.5212   14.6299 H         1 NSY         0.1851
    144 H74        -3.1852    0.3274   -1.8638 H         1 NSY         0.0615
    145 H75        -5.7216   -2.9218   -3.7337 H         1 NSY         0.0615
    146 H76        -2.6914    1.2415   -4.2468 H         1 NSY         0.0615
    147 H77        -5.2175   -1.9553   -6.0136 H         1 NSY         0.0615
    148 H78        -3.7352    0.1093   -6.2574 H         1 NSY         0.0610
    149 H79        -1.8493   -4.1499    8.6649 H         1 NSY         0.0453
    150 H80        -3.0862   -2.9449    7.2962 H         1 NSY         0.0470
    151 H81        -2.7935   -5.0550    5.1842 H         1 NSY         0.0644
    152 H82        -1.7710   -3.6105    4.8772 H         1 NSY         0.0644
    153 H83        -4.2777   -2.4277    4.8935 H         1 NSY         0.1876
@<TRIPOS>BOND
     1    2    1 1  
     2    1    7 1  
     3    2    3 2  
     4   16    2 am 
     5    5    4 1  
     6    9    4 1  
     7    4   12 1  
     8    6    5 2  
     9    7    6 1  
    10    7    8 1  
    11    8    9 1  
    12   13   10 1  
    13   15   10 1  
    14   12   11 1  
    15   11   13 1  
    16   12   14 1  
    17   14   15 1  
    18   17   16 1  
    19   17   18 1  
    20   20   17 1  
    21   18   19 2  
    22   18   28 am 
    23   66   20 1  
    24   21   22 1  
    25   65   21 1  
    26   22   23 ar 
    27   22   24 ar 
    28   23   25 ar 
    29   24   26 ar 
    30   25   27 ar 
    31   26   27 ar 
    32   27   59 1  
    33   28   29 1  
    34   29   30 1  
    35   29   37 1  
    36   30   31 1  
    37   31   32 1  
    38   32   33 1  
    39   33   34 ar 
    40   34   35 ar 
    41   34   36 ar 
    42   37   38 2  
    43   37   39 am 
    44   39   40 1  
    45   40   41 1  
    46   40   43 1  
    47   41   42 2  
    48   41   58 am 
    49   43   44 1  
    50   44   45 1  
    51   44   46 1  
    52   45   47 1  
    53   46   48 2  
    54   47   49 1  
    55   48   49 1  
    56   50   51 1  
    57   50   55 1  
    58   56   50 1  
    59   51   52 1  
    60   52   53 1  
    61   54   53 1  
    62   55   54 1  
    63   57   56 1  
    64   58   57 1  
    65   59   60 ar 
    66   59   61 ar 
    67   60   62 ar 
    68   61   63 ar 
    69   62   64 ar 
    70   63   64 ar 
    71   69   65 am 
    72   65   70 2  
    73   67   66 2  
    74   68   67 1  
    75   68   69 1  
    76    1   71 1  
    77    1   72 1  
    78    4   73 1  
    79    5   74 1  
    80    6   75 1  
    81    7   76 1  
    82    8   77 1  
    83    8   78 1  
    84    9   79 1  
    85    9   80 1  
    86   10   81 1  
    87   10   82 1  
    88   11   83 1  
    89   11   84 1  
    90   12   85 1  
    91   13   86 1  
    92   13   87 1  
    93   14   88 1  
    94   14   89 1  
    95   15   90 1  
    96   15   91 1  
    97   16   92 1  
    98   17   93 1  
    99   20   94 1  
   100   20   95 1  
   101   21   96 1  
   102   21   97 1  
   103   23   98 1  
   104   24   99 1  
   105   25  100 1  
   106   26  101 1  
   107   28  102 1  
   108   29  103 1  
   109   30  104 1  
   110   30  105 1  
   111   31  106 1  
   112   31  107 1  
   113   32  108 1  
   114   32  109 1  
   115   33  110 1  
   116   35  111 1  
   117   35  112 1  
   118   36  113 1  
   119   36  114 1  
   120   39  115 1  
   121   40  116 1  
   122   43  117 1  
   123   43  118 1  
   124   44  119 1  
   125   45  120 1  
   126   45  121 1  
   127   46  122 1  
   128   47  123 1  
   129   47  124 1  
   130   48  125 1  
   131   49  126 1  
   132   49  127 1  
   133   50  128 1  
   134   51  129 1  
   135   51  130 1  
   136   52  131 1  
   137   52  132 1  
   138   53  133 1  
   139   53  134 1  
   140   54  135 1  
   141   54  136 1  
   142   55  137 1  
   143   55  138 1  
   144   56  139 1  
   145   56  140 1  
   146   57  141 1  
   147   57  142 1  
   148   58  143 1  
   149   60  144 1  
   150   61  145 1  
   151   62  146 1  
   152   63  147 1  
   153   64  148 1  
   154   66  149 1  
   155   67  150 1  
   156   68  151 1  
   157   68  152 1  
   158   69  153 1  
@<TRIPOS>SUBSTRUCTURE
     1 NSY         1

