### 
### Created by X-TOOL on Fri Nov 18 15:03:42 2016
### 

@<TRIPOS>MOLECULE
2pqb_ligand
   36    36     1     0     0
SMALL
GAST_HUCK


@<TRIPOS>ATOM
      1 C1       -127.7840   32.0210  127.7750 C.2       1 GG9        -0.0206
      2 C2       -127.4180   32.3690  126.4040 C.2       1 GG9        -0.0423
      3 C3       -128.5040   32.3270  125.3130 C.3       1 GG9         0.1415
      4 C4       -129.9960   32.3540  125.8790 C.3       1 GG9         0.1216
      5 C5       -130.1890   31.2700  126.9710 C.3       1 GG9         0.0983
      6 C6       -129.1940   31.6430  128.1630 C.3       1 GG9         0.0036
      7 C7       -126.6950   32.0350  128.8280 C.2       1 GG9         0.0477
      8 O1       -128.3580   31.1140  124.3810 O.3       1 GG9        -0.2592
      9 O2       -130.8350   32.2050  124.7190 O.3       1 GG9        -0.3840
     10 O3       -131.5660   31.2810  127.4530 O.3       1 GG9        -0.3316
     11 O4       -125.5540   31.8580  128.4280 O.co2     1 GG9        -0.5666
     12 O5       -127.0170   32.1910  130.0050 O.co2     1 GG9        -0.5666
     13 P1       -127.3910   31.1220  123.0460 P.3       1 GG9         0.2044
     14 O6       -125.9160   31.1160  123.5140 O.co2     1 GG9        -0.5536
     15 O7       -127.8230   32.4300  122.3040 O.co2     1 GG9        -0.5536
     16 O8       -127.6420   29.7550  122.3860 O.co2     1 GG9        -0.5536
     17 C8       -132.5120   30.1670  127.2980 C.3       1 GG9         0.3058
     18 C9       -132.6890   29.6280  125.8300 C.3       1 GG9         0.3020
     19 C10      -133.8030   30.6710  127.9060 C.2       1 GG9         0.1145
     20 O9       -133.7180   30.7700  129.1780 O.co2     1 GG9        -0.5422
     21 O10      -134.8030   30.9360  127.2610 O.co2     1 GG9        -0.5422
     22 P2       -131.8170   27.7510  128.4630 P.3       1 GG9         0.2040
     23 O11      -131.9020   26.9290  127.2170 O.co2     1 GG9        -0.5537
     24 O12      -133.1220   27.6380  129.2280 O.co2     1 GG9        -0.5537
     25 O13      -130.6180   27.2610  129.3300 O.co2     1 GG9        -0.5537
     26 O14      -131.5780   29.3540  128.0870 O.3       1 GG9        -0.2326
     27 F1       -131.5490   29.1990  125.3620 F         1 GG9        -0.2037
     28 F2       -133.5370   28.6600  125.8580 F         1 GG9        -0.2037
     29 H1       -126.3958   32.6529  126.1581 H         1 GG9         0.0595
     30 H2       -128.3693   33.2325  124.7032 H         1 GG9         0.0831
     31 H3       -130.1994   33.3319  126.3398 H         1 GG9         0.0674
     32 H4       -129.9469   30.2756  126.5679 H         1 GG9         0.0643
     33 H5       -129.6297   32.4939  128.7072 H         1 GG9         0.0411
     34 H6       -129.1337   30.7719  128.8320 H         1 GG9         0.0411
     35 H7       -131.7470   32.2425  124.9823 H         1 GG9         0.2103
     36 H8       -133.0667   30.4343  125.1841 H         1 GG9         0.1071
@<TRIPOS>BOND
     1    1    2 2  
     2    6    1 1  
     3    1    7 1  
     4    3    2 1  
     5    4    3 1  
     6    3    8 1  
     7    5    4 1  
     8    4    9 1  
     9    5    6 1  
    10   10    5 1  
    11    7   11 ar 
    12    7   12 ar 
    13    8   13 1  
    14   17   10 1  
    15   13   14 ar 
    16   13   15 ar 
    17   13   16 ar 
    18   17   18 1  
    19   17   19 1  
    20   26   17 1  
    21   18   27 1  
    22   18   28 1  
    23   19   20 ar 
    24   19   21 ar 
    25   22   23 ar 
    26   22   24 ar 
    27   22   25 ar 
    28   22   26 1  
    29    2   29 1  
    30    3   30 1  
    31    4   31 1  
    32    5   32 1  
    33    6   33 1  
    34    6   34 1  
    35    9   35 1  
    36   18   36 1  
@<TRIPOS>SUBSTRUCTURE
     1 GG9         1

