### 
### Created by X-TOOL on Fri Nov 18 17:25:35 2016
### 

@<TRIPOS>MOLECULE
4lps_ligand
   41    43     1     0     0
SMALL
GAST_HUCK


@<TRIPOS>ATOM
      1 PB         12.1290   -6.1360   -1.3140 P.3       1 GDP         0.2069
      2 O1B        11.4880   -7.5010   -1.3330 O.co2     1 GDP        -0.5891
      3 O2B        12.9230   -5.9070   -2.5750 O.co2     1 GDP        -0.5891
      4 O3B        13.0710   -6.0140   -0.1420 O.co2     1 GDP        -0.5891
      5 O3A        10.9910   -5.0150   -1.1590 O.3       1 GDP        -0.1548
      6 PA          9.9660   -4.6240   -2.3400 P.3       1 GDP         0.3276
      7 O1A        10.5580   -3.5370   -3.1990 O.co2     1 GDP        -0.5556
      8 O2A         9.5700   -5.8200   -3.1670 O.co2     1 GDP        -0.5556
      9 O5'         8.7310   -4.0250   -1.5190 O.3       1 GDP        -0.2436
     10 C5'         7.7700   -4.8900   -0.9180 C.3       1 GDP         0.1132
     11 C4'         6.4770   -4.1130   -0.7210 C.3       1 GDP         0.1190
     12 O4'         6.7360   -2.9360    0.0460 O.3       1 GDP        -0.3347
     13 C3'         5.9200   -3.6460   -2.0530 C.3       1 GDP         0.1151
     14 O3'         4.4980   -3.7960   -2.0090 O.3       1 GDP        -0.3864
     15 C2'         6.2490   -2.1730   -2.1260 C.3       1 GDP         0.1407
     16 O2'         5.2320   -1.4650   -2.8330 O.3       1 GDP        -0.3835
     17 C1'         6.2590   -1.7860   -0.6600 C.3       1 GDP         0.2218
     18 N9          7.1460   -0.6380   -0.3680 N.pl3     1 GDP        -0.0954
     19 C8          8.4300   -0.4620   -0.7350 C.2       1 GDP         0.1855
     20 N7          8.9070    0.7110   -0.2480 N.2       1 GDP        -0.1929
     21 C5          7.9180    1.2960    0.4580 C.2       1 GDP         0.2558
     22 C6          7.7360    2.5420    1.2400 C.2       1 GDP         0.2628
     23 O6          8.6650    3.3660    1.3600 O.2       1 GDP        -0.3594
     24 N1          6.5470    2.7610    1.8160 N.am      1 GDP        -0.2478
     25 C2          5.5270    1.8890    1.7020 C.cat     1 GDP         0.2041
     26 N2          4.3480    2.1680    2.3070 N.pl3     1 GDP        -0.3327
     27 N3          5.6220    0.7310    1.0050 N.pl3     1 GDP        -0.1901
     28 C4          6.7680    0.3940    0.3780 C.2       1 GDP         0.3268
     29 H1          8.1439   -5.2408    0.0552 H         1 GDP         0.0648
     30 H2          7.5873   -5.7541   -1.5737 H         1 GDP         0.0648
     31 H3          5.7419   -4.7496   -0.2069 H         1 GDP         0.0651
     32 H4          6.3532   -4.2025   -2.8972 H         1 GDP         0.0648
     33 H5          4.1248   -3.5093   -2.8342 H         1 GDP         0.2100
     34 H6          7.2262   -1.9969   -2.5993 H         1 GDP         0.0677
     35 H7          4.4018   -1.5733   -2.3841 H         1 GDP         0.2101
     36 H8          5.2368   -1.5369   -0.3389 H         1 GDP         0.1021
     37 H9          9.0048   -1.1632   -1.3382 H         1 GDP         0.1823
     38 H10         6.4124    3.5976    2.3470 H         1 GDP         0.1819
     39 H11         3.5599    1.5095    2.2277 H         1 GDP         0.1774
     40 H12         4.2393    3.0387    2.8465 H         1 GDP         0.1774
     41 H13         4.8093    0.1003    0.9532 H         1 GDP         0.2519
@<TRIPOS>BOND
     1    1    2 ar 
     2    1    3 ar 
     3    1    4 ar 
     4    1    5 1  
     5    5    6 1  
     6    6    7 ar 
     7    6    8 ar 
     8    6    9 1  
     9    9   10 1  
    10   10   11 1  
    11   11   12 1  
    12   11   13 1  
    13   12   17 1  
    14   13   14 1  
    15   13   15 1  
    16   15   16 1  
    17   15   17 1  
    18   17   18 1  
    19   18   19 1  
    20   18   28 1  
    21   19   20 2  
    22   20   21 1  
    23   21   22 1  
    24   21   28 2  
    25   22   23 2  
    26   22   24 am 
    27   24   25 ar 
    28   25   26 ar 
    29   25   27 ar 
    30   27   28 1  
    31   10   29 1  
    32   10   30 1  
    33   11   31 1  
    34   13   32 1  
    35   14   33 1  
    36   15   34 1  
    37   16   35 1  
    38   17   36 1  
    39   19   37 1  
    40   24   38 1  
    41   26   39 1  
    42   26   40 1  
    43   27   41 1  
@<TRIPOS>SUBSTRUCTURE
     1 GDP         1

