### 
### Created by X-TOOL on Wed Dec 13 14:17:44 2017
### 

@<TRIPOS>MOLECULE
5cst_ligand
   37    38     1     0     0
SMALL
GAST_HUCK


@<TRIPOS>ATOM
      1 O3B       -14.4740  -16.5750   11.8300 O.co2     1 CDP        -0.5891
      2 PB        -14.2120  -15.3610   10.9470 P.3       1 CDP         0.2069
      3 O1B       -12.7640  -15.1620   10.7050 O.co2     1 CDP        -0.5891
      4 O2B       -14.8710  -14.0960   11.4610 O.co2     1 CDP        -0.5891
      5 O3A       -14.9150  -15.7730    9.5280 O.3       1 CDP        -0.1548
      6 PA        -15.8520  -17.1030    9.2200 P.3       1 CDP         0.3276
      7 O1A       -15.1280  -18.4330    9.1780 O.co2     1 CDP        -0.5556
      8 O2A       -17.1090  -17.0290   10.0660 O.co2     1 CDP        -0.5556
      9 O5'       -16.2470  -16.8110    7.6760 O.3       1 CDP        -0.2436
     10 C5'       -16.7960  -15.5280    7.4970 C.3       1 CDP         0.1132
     11 C4'       -17.1180  -15.1660    6.0650 C.3       1 CDP         0.1190
     12 O4'       -15.9200  -15.0060    5.3030 O.3       1 CDP        -0.3353
     13 C3'       -17.9270  -16.2360    5.3510 C.3       1 CDP         0.1150
     14 O3'       -19.2890  -16.2620    5.7920 O.3       1 CDP        -0.3864
     15 C2'       -17.7060  -15.7740    3.9380 C.3       1 CDP         0.1399
     16 O2'       -18.5470  -14.6390    3.6480 O.3       1 CDP        -0.3835
     17 C1'       -16.2290  -15.3360    3.9540 C.3       1 CDP         0.2109
     18 N1        -15.2690  -16.3630    3.4290 N.am      1 CDP        -0.1467
     19 C2        -15.0310  -16.4370    2.0320 C.2       1 CDP         0.3488
     20 O2        -15.6220  -15.6970    1.1980 O.2       1 CDP        -0.3777
     21 N3        -14.1540  -17.3690    1.5720 N.am      1 CDP        -0.1924
     22 C4        -13.5460  -18.2150    2.4080 C.2       1 CDP         0.0853
     23 N4        -12.7090  -19.0710    1.8810 N.2       1 CDP        -0.4291
     24 C5        -13.7660  -18.1880    3.7840 C.2       1 CDP         0.0019
     25 C6        -14.6500  -17.2330    4.2610 C.2       1 CDP         0.0739
     26 H1        -16.0751  -14.7915    7.8815 H         1 CDP         0.0648
     27 H2        -17.7262  -15.4701    8.0812 H         1 CDP         0.0648
     28 H3        -17.6852  -14.2235    6.0661 H         1 CDP         0.0651
     29 H4        -17.4978  -17.2371    5.5049 H         1 CDP         0.0648
     30 H5        -19.6927  -15.4194    5.6195 H         1 CDP         0.2100
     31 H6        -17.8868  -16.5802    3.2118 H         1 CDP         0.0677
     32 H7        -18.3984  -14.3566    2.7532 H         1 CDP         0.2101
     33 H8        -16.1274  -14.4362    3.3295 H         1 CDP         0.1013
     34 H9        -13.9612  -17.4218    0.5922 H         1 CDP         0.2412
     35 H10       -12.2249  -19.7304    2.4700 H         1 CDP         0.0340
     36 H11       -13.2659  -18.8857    4.4541 H         1 CDP         0.0330
     37 H12       -14.8513  -17.1814    5.3300 H         1 CDP         0.1288
@<TRIPOS>BOND
     1    1    2 ar 
     2    2    3 ar 
     3    2    4 ar 
     4    2    5 1  
     5    5    6 1  
     6    6    7 ar 
     7    6    8 ar 
     8    6    9 1  
     9    9   10 1  
    10   10   11 1  
    11   11   12 1  
    12   11   13 1  
    13   12   17 1  
    14   13   14 1  
    15   13   15 1  
    16   15   16 1  
    17   15   17 1  
    18   17   18 1  
    19   18   19 am 
    20   18   25 1  
    21   19   20 2  
    22   19   21 am 
    23   21   22 1  
    24   22   23 2  
    25   22   24 1  
    26   24   25 2  
    27   10   26 1  
    28   10   27 1  
    29   11   28 1  
    30   13   29 1  
    31   14   30 1  
    32   15   31 1  
    33   16   32 1  
    34   17   33 1  
    35   21   34 1  
    36   23   35 1  
    37   24   36 1  
    38   25   37 1  
@<TRIPOS>SUBSTRUCTURE
     1 CDP         1

