### 
### Created by X-TOOL on Fri Nov 18 12:14:13 2016
### 

@<TRIPOS>MOLECULE
4rsk_ligand
   32    33     1     0     0
SMALL
GAST_HUCK


@<TRIPOS>ATOM
      1 N1        -17.4780   40.5510   26.9940 N.am      1 U3P        -0.1592
      2 C2        -16.4660   39.6670   27.3050 C.2       1 U3P         0.3328
      3 N3        -16.4880   38.4790   26.6180 N.am      1 U3P        -0.1865
      4 C4        -17.3880   38.1090   25.6330 C.2       1 U3P         0.1822
      5 C5        -18.4280   39.0830   25.3800 C.2       1 U3P         0.0062
      6 C6        -18.4400   40.2460   26.0590 C.2       1 U3P         0.0591
      7 O2        -15.6160   39.8940   28.1380 O.2       1 U3P        -0.3815
      8 O4        -17.2600   37.0220   25.0570 O.2       1 U3P        -0.4124
      9 P         -15.8830   45.6620   25.8820 P.3       1 U3P         0.2013
     10 O1P       -15.6570   44.9480   24.6010 O.co2     1 U3P        -0.5537
     11 O2P       -14.8210   45.2800   26.8370 O.co2     1 U3P        -0.5537
     12 O3P       -16.0660   47.1290   25.7420 O.co2     1 U3P        -0.5537
     13 O5'       -21.4530   43.4440   26.6720 O.3       1 U3P        -0.3924
     14 C5'       -20.1820   43.7310   26.0890 C.3       1 U3P         0.0734
     15 C4'       -19.0130   43.5950   27.0750 C.3       1 U3P         0.1182
     16 O4'       -18.9560   42.2550   27.6550 O.3       1 U3P        -0.3363
     17 C3'       -17.6480   43.7800   26.4070 C.3       1 U3P         0.1483
     18 O3'       -17.2880   45.1610   26.4590 O.3       1 U3P        -0.2675
     19 C2'       -16.6950   42.9200   27.2490 C.3       1 U3P         0.1433
     20 O2'       -16.2110   43.5960   28.4060 O.3       1 U3P        -0.3833
     21 C1'       -17.6080   41.8070   27.7310 C.3       1 U3P         0.2062
     22 H1        -15.7811   37.8119   26.8531 H         1 U3P         0.2259
     23 H2        -19.2005   38.8756   24.6410 H         1 U3P         0.0258
     24 H3        -19.2336   40.9653   25.8624 H         1 U3P         0.1178
     25 H4        -21.4565   42.5516   26.9976 H         1 U3P         0.2095
     26 H5        -20.0164   43.0344   25.2539 H         1 U3P         0.0584
     27 H6        -20.1984   44.7628   25.7081 H         1 U3P         0.0584
     28 H7        -19.1417   44.3441   27.8701 H         1 U3P         0.0650
     29 H8        -17.6643   43.4368   25.3621 H         1 U3P         0.0704
     30 H9        -15.8553   42.5454   26.6452 H         1 U3P         0.0680
     31 H10       -15.7385   44.3764   28.1410 H         1 U3P         0.2101
     32 H11       -17.3607   41.6033   28.7833 H         1 U3P         0.0997
@<TRIPOS>BOND
     1    1   21 1  
     2    1    6 am 
     3    1    2 am 
     4    2    7 2  
     5    2    3 am 
     6    3    4 am 
     7    4    8 2  
     8    4    5 1  
     9    5    6 2  
    10   21   19 1  
    11   21   16 1  
    12   16   15 1  
    13   15   17 1  
    14   15   14 1  
    15   14   13 1  
    16   17   19 1  
    17   17   18 1  
    18   18    9 1  
    19    9   12 ar 
    20    9   11 ar 
    21    9   10 ar 
    22   19   20 1  
    23    3   22 1  
    24    5   23 1  
    25    6   24 1  
    26   13   25 1  
    27   14   26 1  
    28   14   27 1  
    29   15   28 1  
    30   17   29 1  
    31   19   30 1  
    32   20   31 1  
    33   21   32 1  
@<TRIPOS>SUBSTRUCTURE
     1 U3P         1

