### 
### Created by X-TOOL on Fri Nov 18 11:53:49 2016
### 

@<TRIPOS>MOLECULE
1hos_ligand
  105   108     1     0     0
SMALL
GAST_HUCK


@<TRIPOS>ATOM
      1 C1        -11.8060   14.2810   32.9730 C.2       1 PHP         0.3239
      2 O1        -12.5370   15.2660   33.2010 O.2       1 PHP        -0.3773
      3 OA1       -12.1400   13.0310   33.3080 O.3       1 PHP        -0.2506
      4 CB1       -13.5450   12.6790   33.3440 C.3       1 PHP         0.1113
      5 CG1       -13.6900   11.1780   33.2350 C.ar      1 PHP        -0.0130
      6 C6        -12.8830   10.4570   32.3670 C.ar      1 PHP        -0.0578
      7 C7        -14.6320   10.5430   34.0160 C.ar      1 PHP        -0.0578
      8 C8        -13.0240    9.0890   32.2790 C.ar      1 PHP        -0.0685
      9 C9        -14.7660    9.1800   33.9230 C.ar      1 PHP        -0.0685
     10 CZ1       -13.9670    8.4550   33.0610 C.ar      1 PHP        -0.0687
     11 N2        -10.6320   14.4110   32.3710 N.am      1 PHP        -0.2408
     12 CA2       -10.1320   15.6830   31.9370 C.3       1 PHP         0.1350
     13 CB2        -8.8190   16.0070   32.6870 C.3       1 PHP        -0.0063
     14 C14        -8.1430   17.1840   32.0580 C.3       1 PHP        -0.0584
     15 C15        -9.1020   16.5270   34.1000 C.3       1 PHP        -0.0584
     16 C2         -9.9450   15.3550   30.4590 C.2       1 PHP         0.2034
     17 O2         -9.1700   14.4630   30.1010 O.2       1 PHP        -0.3945
     18 N3        -10.6720   16.0660   29.5990 N.am      1 PHP        -0.2644
     19 CA3       -10.6500   15.9040   28.1450 C.3       1 PHP         0.1180
     20 CB3       -12.0690   15.6350   27.5810 C.3       1 PHP         0.0206
     21 CG3       -12.7020   14.4350   28.2690 C.ar      1 PHP        -0.0393
     22 C22       -13.8110   14.6140   29.0700 C.ar      1 PHP        -0.0602
     23 C23       -12.1110   13.1780   28.1650 C.ar      1 PHP        -0.0602
     24 C24       -14.3120   13.5420   29.7680 C.ar      1 PHP        -0.0686
     25 C25       -12.6260   12.1100   28.8710 C.ar      1 PHP        -0.0686
     26 CZ3       -13.7230   12.3040   29.6690 C.ar      1 PHP        -0.0687
     27 P3        -10.1060   17.5440   27.6070 P.3       1 PHP         0.0413
     28 O3        -10.3760   18.5240   28.6760 O.co2     1 PHP        -0.6159
     29 O3'       -10.8580   18.0890   26.4480 O.co2     1 PHP        -0.6159
     30 N4         -8.3910   17.3450   25.6990 N.am      1 PHP        -0.2644
     31 CA4        -8.3750   17.3260   27.1500 C.3       1 PHP         0.1180
     32 CB4        -7.5110   18.4950   27.6650 C.3       1 PHP         0.0206
     33 CG4        -6.0630   18.2030   27.3040 C.ar      1 PHP        -0.0393
     34 C34        -5.4620   18.8730   26.2520 C.ar      1 PHP        -0.0602
     35 C35        -5.3910   17.1840   27.9520 C.ar      1 PHP        -0.0602
     36 C36        -4.2000   18.4990   25.8480 C.ar      1 PHP        -0.0686
     37 C37        -4.1320   16.8220   27.5380 C.ar      1 PHP        -0.0686
     38 CZ4        -3.5410   17.4760   26.4840 C.ar      1 PHP        -0.0687
     39 N5         -6.6320   16.6110   23.1420 N.am      1 PHP        -0.2408
     40 CA5        -8.0490   16.4870   23.4280 C.3       1 PHP         0.1350
     41 CB5        -8.7050   15.2370   22.8400 C.3       1 PHP        -0.0063
     42 C42       -10.1970   15.3290   23.1230 C.3       1 PHP        -0.0584
     43 C43        -8.5050   15.1430   21.3500 C.3       1 PHP        -0.0584
     44 C5         -7.9900   16.3320   24.9310 C.2       1 PHP         0.2034
     45 O5         -7.5580   15.2850   25.4050 O.2       1 PHP        -0.3945
     46 CB6        -3.9600   16.8860   21.6550 C.3       1 PHP         0.1113
     47 CG6        -2.5840   16.8520   22.3450 C.ar      1 PHP        -0.0130
     48 C48        -2.0150   18.0070   22.8560 C.ar      1 PHP        -0.0578
     49 C49        -0.7700   17.9660   23.4600 C.ar      1 PHP        -0.0685
     50 C50        -0.6390   15.6240   23.0590 C.ar      1 PHP        -0.0685
     51 C51        -1.8820   15.6630   22.4540 C.ar      1 PHP        -0.0578
     52 CZ6        -0.0770   16.7810   23.5640 C.ar      1 PHP        -0.0687
     53 OA6        -4.8250   17.8490   22.3380 O.3       1 PHP        -0.2506
     54 C6         -6.1340   17.7180   22.5890 C.2       1 PHP         0.3239
     55 O6         -6.8680   18.6750   22.2980 O.2       1 PHP        -0.3773
     56 H1        -14.0654   13.1599   32.5027 H         1 PHP         0.0776
     57 H2        -13.9851   13.0222   34.2919 H         1 PHP         0.0776
     58 H3        -12.1442   10.9679   31.7602 H         1 PHP         0.0557
     59 H4        -15.2580   11.1119   34.6939 H         1 PHP         0.0557
     60 H5        -12.4001    8.5168   31.6020 H         1 PHP         0.0599
     61 H6        -15.5042    8.6691   34.5305 H         1 PHP         0.0599
     62 H7        -14.0818    7.3789   32.9984 H         1 PHP         0.0559
     63 H8        -10.0764   13.5945   32.2143 H         1 PHP         0.1899
     64 H9        -10.8543   16.4991   32.0863 H         1 PHP         0.0802
     65 H10        -8.1671   15.1211   32.7038 H         1 PHP         0.0342
     66 H11        -7.2113   17.4044   32.5997 H         1 PHP         0.0234
     67 H12        -8.8096   18.0578   32.1045 H         1 PHP         0.0234
     68 H13        -7.9109   16.9553   31.0074 H         1 PHP         0.0234
     69 H14        -9.6085   15.7445   34.6841 H         1 PHP         0.0234
     70 H15        -9.7471   17.4160   34.0412 H         1 PHP         0.0234
     71 H16        -8.1537   16.7938   34.5893 H         1 PHP         0.0234
     72 H17       -11.2800   16.7647   29.9762 H         1 PHP         0.1872
     73 H18        -9.9567   15.1092   27.8324 H         1 PHP         0.0789
     74 H19       -11.9969   15.4359   26.5016 H         1 PHP         0.0465
     75 H20       -12.6985   16.5212   27.7492 H         1 PHP         0.0465
     76 H21       -14.2809   15.5878   29.1476 H         1 PHP         0.0557
     77 H22       -11.2449   13.0384   27.5283 H         1 PHP         0.0557
     78 H23       -15.1805   13.6738   30.4032 H         1 PHP         0.0599
     79 H24       -12.1686   11.1301   28.7953 H         1 PHP         0.0599
     80 H25       -14.1314   11.4707   30.2292 H         1 PHP         0.0559
     81 H26        -8.7245   18.1717   25.2459 H         1 PHP         0.1872
     82 H27        -7.9833   16.3726   27.5342 H         1 PHP         0.0789
     83 H28        -7.6133   18.5823   28.7567 H         1 PHP         0.0465
     84 H29        -7.8320   19.4340   27.1904 H         1 PHP         0.0465
     85 H30        -5.9796   19.6835   25.7517 H         1 PHP         0.0557
     86 H31        -5.8566   16.6711   28.7858 H         1 PHP         0.0557
     87 H32        -3.7236   19.0155   25.0225 H         1 PHP         0.0599
     88 H33        -3.6049   16.0205   28.0428 H         1 PHP         0.0599
     89 H34        -2.5510   17.1833   26.1534 H         1 PHP         0.0559
     90 H35        -6.0180   15.8534   23.3633 H         1 PHP         0.1899
     91 H36        -8.6040   17.3830   23.1130 H         1 PHP         0.0802
     92 H37        -8.2828   14.3416   23.3196 H         1 PHP         0.0342
     93 H38       -10.7033   14.4429   22.7126 H         1 PHP         0.0234
     94 H39       -10.6045   16.2354   22.6514 H         1 PHP         0.0234
     95 H40       -10.3620   15.3752   24.2096 H         1 PHP         0.0234
     96 H41        -7.4298   15.0757   21.1279 H         1 PHP         0.0234
     97 H42        -8.9239   16.0379   20.8666 H         1 PHP         0.0234
     98 H43        -9.0152   14.2468   20.9673 H         1 PHP         0.0234
     99 H44        -3.8357   17.1859   20.6040 H         1 PHP         0.0776
    100 H45        -4.4172   15.8865   21.6996 H         1 PHP         0.0776
    101 H46        -2.5476   18.9483   22.7825 H         1 PHP         0.0557
    102 H47        -0.3359   18.8772   23.8555 H         1 PHP         0.0599
    103 H48        -0.1046   14.6841   23.1372 H         1 PHP         0.0599
    104 H49        -2.3130   14.7500   22.0595 H         1 PHP         0.0557
    105 H50         0.8982   16.7558   24.0366 H         1 PHP         0.0559
@<TRIPOS>BOND
     1    1   11 am 
     2    1    3 1  
     3    1    2 2  
     4    3    4 1  
     5    4    5 1  
     6    5    7 ar 
     7    5    6 ar 
     8    6    8 ar 
     9    8   10 ar 
    10   10    9 ar 
    11    9    7 ar 
    12   11   12 1  
    13   12   16 1  
    14   12   13 1  
    15   13   15 1  
    16   13   14 1  
    17   16   18 am 
    18   16   17 2  
    19   18   19 1  
    20   19   27 1  
    21   19   20 1  
    22   20   21 1  
    23   21   23 ar 
    24   21   22 ar 
    25   22   24 ar 
    26   24   26 ar 
    27   26   25 ar 
    28   25   23 ar 
    29   27   31 1  
    30   27   29 ar 
    31   27   28 ar 
    32   31   30 1  
    33   31   32 1  
    34   32   33 1  
    35   33   35 ar 
    36   33   34 ar 
    37   34   36 ar 
    38   36   38 ar 
    39   38   37 ar 
    40   37   35 ar 
    41   30   44 am 
    42   44   45 2  
    43   44   40 1  
    44   40   41 1  
    45   40   39 1  
    46   39   54 am 
    47   54   55 2  
    48   54   53 1  
    49   53   46 1  
    50   46   47 1  
    51   47   51 ar 
    52   47   48 ar 
    53   48   49 ar 
    54   49   52 ar 
    55   52   50 ar 
    56   50   51 ar 
    57   41   43 1  
    58   41   42 1  
    59    4   56 1  
    60    4   57 1  
    61    6   58 1  
    62    7   59 1  
    63    8   60 1  
    64    9   61 1  
    65   10   62 1  
    66   11   63 1  
    67   12   64 1  
    68   13   65 1  
    69   14   66 1  
    70   14   67 1  
    71   14   68 1  
    72   15   69 1  
    73   15   70 1  
    74   15   71 1  
    75   18   72 1  
    76   19   73 1  
    77   20   74 1  
    78   20   75 1  
    79   22   76 1  
    80   23   77 1  
    81   24   78 1  
    82   25   79 1  
    83   26   80 1  
    84   30   81 1  
    85   31   82 1  
    86   32   83 1  
    87   32   84 1  
    88   34   85 1  
    89   35   86 1  
    90   36   87 1  
    91   37   88 1  
    92   38   89 1  
    93   39   90 1  
    94   40   91 1  
    95   41   92 1  
    96   42   93 1  
    97   42   94 1  
    98   42   95 1  
    99   43   96 1  
   100   43   97 1  
   101   43   98 1  
   102   46   99 1  
   103   46  100 1  
   104   48  101 1  
   105   49  102 1  
   106   50  103 1  
   107   51  104 1  
   108   52  105 1  
@<TRIPOS>SUBSTRUCTURE
     1 PHP         1

