### 
### Created by X-TOOL on Wed Dec 13 14:18:52 2017
### 

@<TRIPOS>MOLECULE
5fsy_ligand
   57    60     1     0     0
SMALL
GAST_HUCK


@<TRIPOS>ATOM
      1 N1         33.2230    1.9270   12.8600 N.ar      1 AR6        -0.2698
      2 C2         32.2850    1.5880   13.7750 C.ar      1 AR6         0.0533
      3 N3         31.2560    2.3890   14.0900 N.ar      1 AR6        -0.2714
      4 C4         31.0940    3.5910   13.4300 C.ar      1 AR6         0.1613
      5 C5         32.0340    3.9840   12.4010 C.ar      1 AR6         0.1045
      6 C6         33.1460    3.0720   12.1720 C.ar      1 AR6         0.1298
      7 N6         34.0510    3.3590   11.2600 N.pl3     1 AR6        -0.3152
      8 N7         31.6540    5.1860   11.9210 N.2       1 AR6        -0.2958
      9 C8         30.5460    5.5260   12.5620 C.2       1 AR6         0.1123
     10 N9         30.2150    4.5740   13.4610 N.pl3     1 AR6        -0.1919
     11 PA         26.3880    6.1430   10.9470 P.3       1 AR6         0.2972
     12 PB         23.5820    6.6130   10.3470 P.3       1 AR6         0.2972
     13 C1'        29.0530    4.6020   14.3600 C.3       1 AR6         0.2010
     14 O1A        27.2050    4.9720   10.4950 O.co2     1 AR6        -0.6127
     15 O1B        22.3910    5.7160   10.5700 O.co2     1 AR6        -0.6127
     16 C1D        26.1250    5.3340    5.9430 C.3       1 AR6         0.1854
     17 O1D        26.9130    5.8500    4.8630 O.3       1 AR6        -0.3649
     18 C2'        28.6360    5.9990   14.7930 C.3       1 AR6         0.1385
     19 O2'        29.6230    6.5840   15.6510 O.3       1 AR6        -0.3836
     20 O2A        26.8560    7.4920   10.5380 O.co2     1 AR6        -0.6127
     21 O2B        23.6110    7.9260   11.1210 O.co2     1 AR6        -0.6127
     22 C2D        25.0020    4.4530    5.4510 C.3       1 AR6         0.1339
     23 O2D        25.2310    3.8150    4.1980 O.3       1 AR6        -0.3841
     24 C3'        27.2680    5.6580   15.3480 C.3       1 AR6         0.1149
     25 O3'        27.3850    5.0340   16.6410 O.3       1 AR6        -0.3864
     26 O3A        24.9070    5.7480   10.4820 O.3       1 AR6        -0.1319
     27 C3D        23.7770    5.3470    5.4310 C.3       1 AR6         0.1144
     28 O3D        23.5780    5.9370    4.1320 O.3       1 AR6        -0.3864
     29 C4'        26.7400    4.5960   14.3810 C.3       1 AR6         0.1189
     30 O4'        27.8930    4.1010   13.7280 O.3       1 AR6        -0.3364
     31 C4D        24.0950    6.3670    6.4980 C.3       1 AR6         0.1184
     32 O4D        25.5150    6.3840    6.7210 O.3       1 AR6        -0.3403
     33 C5'        25.7680    5.0160   13.2680 C.3       1 AR6         0.1128
     34 O5'        26.2930    6.1290   12.5550 O.3       1 AR6        -0.2476
     35 C5D        23.4060    6.0290    7.7990 C.3       1 AR6         0.1128
     36 O5D        23.6310    7.0280    8.7940 O.3       1 AR6        -0.2476
     37 H1         32.3687    0.6294   14.2740 H         1 AR6         0.0996
     38 H2         33.9886    4.2413   10.7323 H         1 AR6         0.1820
     39 H3         34.8215    2.7012   11.0742 H         1 AR6         0.1820
     40 H4         29.9827    6.4418   12.3890 H         1 AR6         0.1349
     41 H5         29.2937    3.9964   15.2462 H         1 AR6         0.0996
     42 H6         26.7863    4.7434    6.5940 H         1 AR6         0.0935
     43 H7         27.6047    6.4000    5.2117 H         1 AR6         0.2126
     44 H8         28.5227    6.6684   13.9275 H         1 AR6         0.0676
     45 H9         29.3417    7.4542   15.9082 H         1 AR6         0.2101
     46 H10        24.8444    3.6535    6.1899 H         1 AR6         0.0671
     47 H11        26.0002    3.2610    4.2619 H         1 AR6         0.2101
     48 H12        26.6166    6.5431   15.3952 H         1 AR6         0.0648
     49 H13        27.8207    5.6287   17.2401 H         1 AR6         0.2100
     50 H14        22.8754    4.7778    5.7014 H         1 AR6         0.0648
     51 H15        22.8055    6.4897    4.1514 H         1 AR6         0.2100
     52 H16        26.2551    3.8052   14.9722 H         1 AR6         0.0651
     53 H17        23.7619    7.3591    6.1592 H         1 AR6         0.0651
     54 H18        24.8015    5.2930   13.7143 H         1 AR6         0.0648
     55 H19        25.6239    4.1747   12.5742 H         1 AR6         0.0648
     56 H20        23.7922    5.0670    8.1669 H         1 AR6         0.0648
     57 H21        22.3244    5.9447    7.6175 H         1 AR6         0.0648
@<TRIPOS>BOND
     1    2    1 ar 
     2    6    1 ar 
     3    3    2 ar 
     4    4    3 ar 
     5    4    5 ar 
     6   10    4 1  
     7    5    6 ar 
     8    8    5 1  
     9    6    7 1  
    10    9    8 2  
    11   10    9 1  
    12   13   10 1  
    13   11   14 ar 
    14   11   20 ar 
    15   26   11 1  
    16   11   34 1  
    17   12   15 ar 
    18   12   21 ar 
    19   12   26 1  
    20   36   12 1  
    21   13   18 1  
    22   30   13 1  
    23   16   17 1  
    24   16   22 1  
    25   32   16 1  
    26   18   19 1  
    27   24   18 1  
    28   22   23 1  
    29   27   22 1  
    30   24   25 1  
    31   29   24 1  
    32   27   28 1  
    33   31   27 1  
    34   29   30 1  
    35   33   29 1  
    36   31   32 1  
    37   35   31 1  
    38   34   33 1  
    39   35   36 1  
    40    2   37 1  
    41    7   38 1  
    42    7   39 1  
    43    9   40 1  
    44   13   41 1  
    45   16   42 1  
    46   17   43 1  
    47   18   44 1  
    48   19   45 1  
    49   22   46 1  
    50   23   47 1  
    51   24   48 1  
    52   25   49 1  
    53   27   50 1  
    54   28   51 1  
    55   29   52 1  
    56   31   53 1  
    57   33   54 1  
    58   33   55 1  
    59   35   56 1  
    60   35   57 1  
@<TRIPOS>SUBSTRUCTURE
     1 AR6         1

