### 
### Created by X-TOOL on Fri Nov 18 13:31:44 2016
### 

@<TRIPOS>MOLECULE
1v11_ligand
   42    43     1     0     0
SMALL
GAST_HUCK


@<TRIPOS>ATOM
      1 N1         77.0940    0.6000   11.1890 N.ar      1 TDP        -0.2938
      2 C2         77.3550    1.7860   11.7580 C.ar      1 TDP         0.0758
      3 C2A        77.4600    1.9740   13.2600 C.3       1 TDP        -0.0029
      4 N3         77.4460    2.8960   10.9710 N.ar      1 TDP        -0.2610
      5 C4         77.3340    2.8570    9.6150 C.ar      1 TDP         0.1223
      6 N4         77.5390    4.0350    8.9390 N.pl3     1 TDP        -0.3187
      7 C5         77.1030    1.5880    8.9950 C.ar      1 TDP         0.0328
      8 C6         76.9460    0.4970    9.8490 C.ar      1 TDP         0.0074
      9 C35        76.9640    1.4180    7.4700 C.3       1 TDP         0.0562
     10 N3         75.6730    1.9780    7.0130 N.2       1 TDP        -0.2745
     11 C2         75.7960    3.2460    6.3450 C.2       1 TDP         0.1352
     12 S1         74.0630    3.6270    5.9090 S.3       1 TDP         0.1156
     13 C5         73.3750    2.1240    6.5320 C.2       1 TDP         0.1730
     14 C4         74.4510    1.3760    7.0430 C.2       1 TDP         0.1309
     15 C4A        74.2630    0.0230    7.6330 C.3       1 TDP         0.0228
     16 C5A        71.9080    1.8660    6.4200 C.3       1 TDP         0.0829
     17 C5B        71.1190    2.8860    7.2480 C.3       1 TDP         0.1135
     18 O5G        69.7730    2.6770    7.1320 O.3       1 TDP        -0.2401
     19 P1         68.7020    3.6990    7.6490 P.3       1 TDP         0.3279
     20 O11        68.7790    5.0250    6.7250 O.3       1 TDP        -0.1548
     21 O12        69.1020    4.1640    8.9760 O.co2     1 TDP        -0.5556
     22 O13        67.3230    3.0360    7.5420 O.co2     1 TDP        -0.5556
     23 P2         68.5080    5.1730    5.1260 P.3       1 TDP         0.2069
     24 O21        69.8360    4.8430    4.4200 O.co2     1 TDP        -0.5891
     25 O22        67.4630    4.1030    4.7390 O.co2     1 TDP        -0.5891
     26 O23        68.0890    6.5980    4.8690 O.co2     1 TDP        -0.5891
     27 H1         77.3694    0.9978   13.7589 H         1 TDP         0.0449
     28 H2         76.6530    2.6377   13.6038 H         1 TDP         0.0449
     29 H3         78.4337    2.4226   13.5062 H         1 TDP         0.0449
     30 H4         77.4658    4.0588    7.9119 H         1 TDP         0.1789
     31 H5         77.7659    4.8945    9.4592 H         1 TDP         0.1789
     32 H6         76.6964   -0.4682    9.4234 H         1 TDP         0.0791
     33 H7         77.0066    0.3482    7.2175 H         1 TDP         0.0563
     34 H8         77.7880    1.9463    6.9681 H         1 TDP         0.0563
     35 H9         76.6938    3.8303    6.1490 H         1 TDP         0.1655
     36 H10        73.2054   -0.2684    7.5523 H         1 TDP         0.0599
     37 H11        74.5587    0.0406    8.6924 H         1 TDP         0.0599
     38 H12        74.8859   -0.7034    7.0905 H         1 TDP         0.0599
     39 H13        71.6893    0.8532    6.7893 H         1 TDP         0.0773
     40 H14        71.6060    1.9448    5.3652 H         1 TDP         0.0773
     41 H15        71.3574    3.8992    6.8923 H         1 TDP         0.0687
     42 H16        71.4076    2.7912    8.3052 H         1 TDP         0.0687
@<TRIPOS>BOND
     1    1    2 ar 
     2    1    8 ar 
     3    2    3 1  
     4    2    4 ar 
     5    4    5 ar 
     6    5    6 1  
     7    5    7 ar 
     8    7    8 ar 
     9    7    9 1  
    10    9   10 1  
    11   10   11 2  
    12   10   14 1  
    13   11   12 1  
    14   12   13 1  
    15   13   14 2  
    16   13   16 1  
    17   14   15 1  
    18   16   17 1  
    19   17   18 1  
    20   18   19 1  
    21   19   20 1  
    22   19   21 ar 
    23   19   22 ar 
    24   20   23 1  
    25   23   24 ar 
    26   23   25 ar 
    27   23   26 ar 
    28    3   27 1  
    29    3   28 1  
    30    3   29 1  
    31    6   30 1  
    32    6   31 1  
    33    8   32 1  
    34    9   33 1  
    35    9   34 1  
    36   11   35 1  
    37   15   36 1  
    38   15   37 1  
    39   15   38 1  
    40   16   39 1  
    41   16   40 1  
    42   17   41 1  
    43   17   42 1  
@<TRIPOS>SUBSTRUCTURE
     1 TDP         1

