### 
### Created by X-TOOL on Fri Nov 18 12:51:02 2016
### 

@<TRIPOS>MOLECULE
1ex8_ligand
   66    70     1     0     0
SMALL
GAST_HUCK


@<TRIPOS>ATOM
      1 N9R        -1.7310   16.0200   21.7450 N.pl3     1 A4P        -0.1919
      2 C8R        -3.0080   16.6490   21.6610 C.2       1 A4P         0.1123
      3 N7R        -3.4210   16.9220   20.4500 N.2       1 A4P        -0.2958
      4 C5R        -2.3380   16.4400   19.6670 C.ar      1 A4P         0.1045
      5 C6R        -2.2440   16.4790   18.2430 C.ar      1 A4P         0.1298
      6 N6R        -3.0750   16.9340   17.4080 N.pl3     1 A4P        -0.3152
      7 N1R        -1.0140   15.9120   17.6700 N.ar      1 A4P        -0.2698
      8 C1R        -1.2500   15.5810   23.0850 C.3       1 A4P         0.2010
      9 C2R        -0.1020   15.4180   18.4980 C.ar      1 A4P         0.0533
     10 N3R        -0.1220   15.3450   19.8910 N.ar      1 A4P        -0.2714
     11 C4R        -1.3120   15.8940   20.4340 C.ar      1 A4P         0.1613
     12 O5'         2.3380   17.0560   23.4850 O.3       1 A4P        -0.2476
     13 C5'         1.6790   16.7480   24.7970 C.3       1 A4P         0.1128
     14 C4'         0.5240   15.8640   24.4950 C.3       1 A4P         0.1189
     15 O4'        -0.3830   16.5520   23.6040 O.3       1 A4P        -0.3364
     16 C3'         0.8110   14.6060   23.7740 C.3       1 A4P         0.1149
     17 O3'         1.3240   13.6040   24.6130 O.3       1 A4P        -0.3864
     18 C2'        -0.5260   14.2430   23.1430 C.3       1 A4P         0.1385
     19 O2'        -1.2610   13.3050   23.9740 O.3       1 A4P        -0.3836
     20 PA          3.7310   17.8470   23.4590 P.3       1 A4P         0.2978
     21 O1A         3.9010   18.2160   22.0280 O.co2     1 A4P        -0.6127
     22 O2A         4.8890   17.0530   24.0220 O.co2     1 A4P        -0.6127
     23 O3A         3.5030   19.0320   24.4170 O.3       1 A4P        -0.1265
     24 PB          2.8520   20.4420   23.8710 P.3       1 A4P         0.3361
     25 O1B         1.8550   21.0080   24.8500 O.co2     1 A4P        -0.6079
     26 O2B         2.4680   20.3340   22.4200 O.co2     1 A4P        -0.6079
     27 O3B         4.1320   21.4660   23.9990 O.3       1 A4P        -0.1211
     28 PG          5.0020   21.8470   22.8690 P.3       1 A4P         0.3361
     29 O1G         5.1370   20.6910   21.8740 O.co2     1 A4P        -0.6079
     30 O2G         6.2980   22.3010   23.4610 O.co2     1 A4P        -0.6079
     31 O3G         4.2720   23.0140   22.1020 O.3       1 A4P        -0.1263
     32 PD          3.6820   22.8740   20.6100 P.3       1 A4P         0.2999
     33 O1D         2.5470   23.8750   20.5950 O.co2     1 A4P        -0.6126
     34 O2D         3.0600   21.4940   20.5880 O.co2     1 A4P        -0.6126
     35 O3D         4.7040   22.9970   19.5230 O.3       1 A4P        -0.2348
     36 N1          8.2990   26.8220   16.1330 N.2       1 A4P        -0.2823
     37 C2          8.4940   26.5050   14.8620 C.2       1 A4P         0.2384
     38 N2          9.0220   27.3200   13.9810 N.pl3     1 A4P        -0.2777
     39 N3          8.1040   25.2110   14.4510 N.am      1 A4P        -0.1727
     40 C4          7.5350   24.2300   15.2420 C.2       1 A4P         0.2597
     41 O4          7.2480   23.1100   14.6830 O.2       1 A4P        -0.3771
     42 N5          6.7560   23.7080   17.5800 N.ar      1 A4P        -0.2639
     43 C6          6.6010   24.1460   18.8770 C.ar      1 A4P         0.0827
     44 C6A         6.0120   23.2660   19.9040 C.3       1 A4P         0.1354
     45 C7          7.0160   25.5340   19.3350 C.ar      1 A4P         0.0353
     46 N8          7.5430   26.2680   18.3330 N.ar      1 A4P        -0.2812
     47 C9          7.7490   25.9570   17.0270 C.ar      1 A4P         0.0962
     48 C10         7.3260   24.5910   16.6350 C.ar      1 A4P         0.1482
     49 H1         -3.5990   16.8859   22.5445 H         1 A4P         0.1349
     50 H2         -2.8673   16.8928   16.4000 H         1 A4P         0.1820
     51 H3         -3.9604   17.3463   17.7350 H         1 A4P         0.1820
     52 H4         -2.1328   15.5063   23.7370 H         1 A4P         0.0996
     53 H5          0.7851   15.0135   18.0242 H         1 A4P         0.0996
     54 H6          2.3857   16.2341   25.4652 H         1 A4P         0.0648
     55 H7          1.3318   17.6762   25.2744 H         1 A4P         0.0648
     56 H8          0.0256   15.6253   25.4461 H         1 A4P         0.0651
     57 H9          1.5523   14.7930   22.9831 H         1 A4P         0.0648
     58 H10         0.7105   13.4393   25.3195 H         1 A4P         0.2100
     59 H11        -0.3885   13.8186   22.1376 H         1 A4P         0.0676
     60 H12        -0.7502   12.5112   24.0814 H         1 A4P         0.2101
     61 H13         9.3118   28.2670   14.2642 H         1 A4P         0.1916
     62 H14         9.1470   27.0133   13.0057 H         1 A4P         0.1916
     63 H15         8.2549   24.9809   13.4896 H         1 A4P         0.2533
     64 H16         6.5845   22.3290   19.9688 H         1 A4P         0.0811
     65 H17         6.0223   23.7704   20.8815 H         1 A4P         0.0811
     66 H18         6.9017   25.8937   20.3512 H         1 A4P         0.0871
@<TRIPOS>BOND
     1    1   11 1  
     2    1    8 1  
     3    1    2 1  
     4    2    3 2  
     5    3    4 1  
     6    4   11 ar 
     7    4    5 ar 
     8    5    7 ar 
     9    5    6 1  
    10    7    9 ar 
    11    9   10 ar 
    12   10   11 ar 
    13    8   18 1  
    14    8   15 1  
    15   15   14 1  
    16   14   16 1  
    17   14   13 1  
    18   13   12 1  
    19   12   20 1  
    20   20   23 1  
    21   20   22 ar 
    22   20   21 ar 
    23   23   24 1  
    24   24   27 1  
    25   24   26 ar 
    26   24   25 ar 
    27   27   28 1  
    28   28   31 1  
    29   28   30 ar 
    30   28   29 ar 
    31   31   32 1  
    32   32   35 1  
    33   32   34 ar 
    34   32   33 ar 
    35   35   44 1  
    36   44   43 1  
    37   43   45 ar 
    38   43   42 ar 
    39   42   48 ar 
    40   48   40 1  
    41   48   47 ar 
    42   47   36 1  
    43   47   46 ar 
    44   46   45 ar 
    45   36   37 2  
    46   37   39 am 
    47   37   38 1  
    48   39   40 am 
    49   40   41 2  
    50   16   18 1  
    51   16   17 1  
    52   18   19 1  
    53    2   49 1  
    54    6   50 1  
    55    6   51 1  
    56    8   52 1  
    57    9   53 1  
    58   13   54 1  
    59   13   55 1  
    60   14   56 1  
    61   16   57 1  
    62   17   58 1  
    63   18   59 1  
    64   19   60 1  
    65   38   61 1  
    66   38   62 1  
    67   39   63 1  
    68   44   64 1  
    69   44   65 1  
    70   45   66 1  
@<TRIPOS>SUBSTRUCTURE
     1 A4P         1

