### 
### Created by X-TOOL on Fri Nov 18 12:11:22 2016
### 

@<TRIPOS>MOLECULE
1bxo_ligand
   90    91     1     0     0
SMALL
GAST_HUCK


@<TRIPOS>ATOM
      1 NV2        18.0510    5.3170   18.4320 N.am      1 PP7        -0.2654
      2 CV1        16.0920    4.0570   17.7300 C.3       1 PP7         0.0397
      3 CV6        19.3060    5.5990   19.1250 C.3       1 PP7         0.1332
      4 CV2        14.8410    3.8900   18.5460 C.3       1 PP7        -0.0298
      5 CV7        20.5230    5.4920   18.2140 C.3       1 PP7        -0.0063
      6 CV3        14.6890    4.9220   19.5530 C.3       1 PP7        -0.0606
      7 CV8        20.6780    4.1160   17.6370 C.3       1 PP7        -0.0584
      8 CV4        13.6180    3.7750   17.5780 C.3       1 PP7        -0.0606
      9 CV9        20.5270    6.5810   17.1570 C.3       1 PP7        -0.0584
     10 CV5        17.3280    4.2240   18.5800 C.2       1 PP7         0.1785
     11 CR         19.1970    6.9640   19.8490 C.2       1 PP7         0.2043
     12 OV1        17.7060    3.2880   19.3500 O.2       1 PP7        -0.3969
     13 OV2        18.3670    7.8170   19.5170 O.2       1 PP7        -0.3944
     14 N1         20.1090    7.1410   20.8050 N.am      1 PP7        -0.2616
     15 C1         20.1150    8.3280   21.6850 C.3       1 PP7         0.1475
     16 C2         19.3710    8.0260   22.9740 C.3       1 PP7         0.0776
     17 C4         19.1900    9.1290   23.9840 C.2       1 PP7         0.1823
     18 O2         19.0640    8.8360   25.2000 O.2       1 PP7        -0.3967
     19 N2         19.0770   10.3600   23.5810 N.am      1 PP7        -0.2755
     20 CB         18.6640   11.4770   24.4420 C.3       1 PP7         0.0629
     21 C3         21.5550    8.7340   21.9250 C.2       1 PP7         0.2055
     22 O1         22.1800    8.3600   22.9420 O.2       1 PP7        -0.3943
     23 NL         22.1390    9.4880   20.9720 N.am      1 PP7        -0.2640
     24 CAL        23.5530    9.8470   20.9350 C.3       1 PP7         0.1313
     25 CBL        24.2340    9.3230   19.6550 C.3       1 PP7        -0.0089
     26 CGL        23.9710    7.8600   19.2910 C.3       1 PP7        -0.0431
     27 CL1        24.5990    7.4880   17.9690 C.3       1 PP7        -0.0625
     28 CL2        24.4280    6.9130   20.4160 C.3       1 PP7        -0.0625
     29 P          23.7220   11.6490   21.1010 P.3       1 PP7         0.1500
     30 O3         22.7540   12.2890   20.1340 O.co2     1 PP7        -0.6187
     31 O4         25.1710   12.0470   20.9650 O.co2     1 PP7        -0.6187
     32 O5         23.3540   11.9260   22.6220 O.3       1 PP7        -0.2509
     33 C5         23.9660   12.9730   23.4040 C.3       1 PP7         0.2010
     34 C6         22.9070   14.0680   23.7130 C.3       1 PP7         0.0299
     35 C7         25.5130   12.9980   26.7790 C.3       1 PP7         0.0659
     36 CE2        21.8170   13.6320   24.6150 C.ar      1 PP7        -0.0445
     37 CZ         21.7200   14.0880   25.9480 C.ar      1 PP7        -0.0670
     38 CD2        20.8070   12.7680   24.1780 C.ar      1 PP7        -0.0570
     39 CE1        20.6880   13.6680   26.7730 C.ar      1 PP7        -0.0751
     40 CD1        19.7380   12.7580   26.3260 C.ar      1 PP7        -0.0653
     41 CG         19.7820   12.3320   24.9830 C.ar      1 PP7        -0.0278
     42 CT         24.5240   12.3800   24.6900 C.2       1 PP7         0.2708
     43 OT1        24.9760   13.3280   25.4650 O.3       1 PP7        -0.2778
     44 OT2        24.5270   11.2170   24.9550 O.2       1 PP7        -0.3668
     45 H1         17.7129    6.0087   17.7939 H         1 PP7         0.1883
     46 H2         16.2192    3.1671   17.0961 H         1 PP7         0.0505
     47 H3         15.9802    4.9474   17.0939 H         1 PP7         0.0505
     48 H4         19.4297    4.8295   19.9013 H         1 PP7         0.0802
     49 H5         14.9227    2.9348   19.0853 H         1 PP7         0.0320
     50 H6         21.4067    5.6657   18.8456 H         1 PP7         0.0343
     51 H7         13.7605    4.7499   20.1171 H         1 PP7         0.0234
     52 H8         14.6443    5.9068   19.0650 H         1 PP7         0.0234
     53 H9         15.5468    4.8922   20.2409 H         1 PP7         0.0234
     54 H10        21.5664    4.0881   16.9890 H         1 PP7         0.0234
     55 H11        19.7852    3.8634   17.0462 H         1 PP7         0.0234
     56 H12        20.7962    3.3875   18.4527 H         1 PP7         0.0234
     57 H13        13.8041    2.9758   16.8454 H         1 PP7         0.0234
     58 H14        13.4766    4.7300   17.0508 H         1 PP7         0.0234
     59 H15        12.7131    3.5382   18.1569 H         1 PP7         0.0234
     60 H16        20.4104    7.5620   17.6408 H         1 PP7         0.0234
     61 H17        19.6944    6.4160   16.4574 H         1 PP7         0.0234
     62 H18        21.4791    6.5544   16.6067 H         1 PP7         0.0234
     63 H19        20.8154    6.4445   20.9313 H         1 PP7         0.1885
     64 H20        19.5984    9.1551   21.1760 H         1 PP7         0.0826
     65 H21        19.9141    7.2127   23.4776 H         1 PP7         0.0551
     66 H22        18.3663    7.6771   22.6931 H         1 PP7         0.0551
     67 H23        19.2845   10.5596   22.6233 H         1 PP7         0.1878
     68 H24        18.1136   11.0589   25.2977 H         1 PP7         0.0682
     69 H25        17.9950   12.1254   23.8572 H         1 PP7         0.0682
     70 H26        21.5577    9.8278   20.2326 H         1 PP7         0.1871
     71 H27        24.0499    9.3757   21.7958 H         1 PP7         0.0786
     72 H28        25.3199    9.4461   19.7799 H         1 PP7         0.0306
     73 H29        23.8888    9.9435   18.8149 H         1 PP7         0.0306
     74 H30        22.8830    7.7402   19.1815 H         1 PP7         0.0297
     75 H31        24.3865    6.4319   17.7464 H         1 PP7         0.0232
     76 H32        25.6871    7.6392   18.0245 H         1 PP7         0.0232
     77 H33        24.1808    8.1218   17.1731 H         1 PP7         0.0232
     78 H34        23.9531    7.2117   21.3622 H         1 PP7         0.0232
     79 H35        25.5215    6.9691   20.5209 H         1 PP7         0.0232
     80 H36        24.1358    5.8818   20.1686 H         1 PP7         0.0232
     81 H37        24.7895   13.4225   22.8297 H         1 PP7         0.0945
     82 H38        23.4209   14.9200   24.1821 H         1 PP7         0.0481
     83 H39        22.4577   14.3893   22.7617 H         1 PP7         0.0481
     84 H40        25.8426   13.9189   27.2822 H         1 PP7         0.0577
     85 H41        26.3686   12.3162   26.6648 H         1 PP7         0.0577
     86 H42        24.7331   12.5099   27.3818 H         1 PP7         0.0577
     87 H43        22.4637   14.7769   26.3320 H         1 PP7         0.0499
     88 H44        20.8344   12.4244   23.1503 H         1 PP7         0.0495
     89 H45        20.6212   14.0558   27.7830 H         1 PP7         0.0582
     90 H46        18.9757   12.3819   26.9987 H         1 PP7         0.0500
@<TRIPOS>BOND
     1   10    1 am 
     2    1    3 1  
     3    3   11 1  
     4    3    5 1  
     5    5    9 1  
     6    5    7 1  
     7   11   14 am 
     8   11   13 2  
     9   14   15 1  
    10   15   21 1  
    11   15   16 1  
    12   16   17 1  
    13   17   19 am 
    14   17   18 2  
    15   19   20 1  
    16   20   41 1  
    17   41   40 ar 
    18   41   38 ar 
    19   38   36 ar 
    20   36   37 ar 
    21   36   34 1  
    22   34   33 1  
    23   33   42 1  
    24   33   32 1  
    25   32   29 1  
    26   29   31 ar 
    27   29   30 ar 
    28   29   24 1  
    29   24   25 1  
    30   24   23 1  
    31   21   23 am 
    32   21   22 2  
    33   25   26 1  
    34   26   28 1  
    35   26   27 1  
    36   42   44 2  
    37   42   43 1  
    38   43   35 1  
    39   37   39 ar 
    40   40   39 ar 
    41   10    2 1  
    42   10   12 2  
    43    2    4 1  
    44    4    6 1  
    45    4    8 1  
    46    1   45 1  
    47    2   46 1  
    48    2   47 1  
    49    3   48 1  
    50    4   49 1  
    51    5   50 1  
    52    6   51 1  
    53    6   52 1  
    54    6   53 1  
    55    7   54 1  
    56    7   55 1  
    57    7   56 1  
    58    8   57 1  
    59    8   58 1  
    60    8   59 1  
    61    9   60 1  
    62    9   61 1  
    63    9   62 1  
    64   14   63 1  
    65   15   64 1  
    66   16   65 1  
    67   16   66 1  
    68   19   67 1  
    69   20   68 1  
    70   20   69 1  
    71   23   70 1  
    72   24   71 1  
    73   25   72 1  
    74   25   73 1  
    75   26   74 1  
    76   27   75 1  
    77   27   76 1  
    78   27   77 1  
    79   28   78 1  
    80   28   79 1  
    81   28   80 1  
    82   33   81 1  
    83   34   82 1  
    84   34   83 1  
    85   35   84 1  
    86   35   85 1  
    87   35   86 1  
    88   37   87 1  
    89   38   88 1  
    90   39   89 1  
    91   40   90 1  
@<TRIPOS>SUBSTRUCTURE
     1 PP7         1

