### 
### Created by X-TOOL on Wed Dec 13 14:20:10 2017
### 

@<TRIPOS>MOLECULE
5js3_ligand
   68    68     1     0     0
SMALL
GAST_HUCK


@<TRIPOS>ATOM
      1 C2         10.0960   38.4160   -3.5650 C.3       1 MOL         0.1228
      2 C3          8.9270   39.3410   -3.8680 C.2       1 MOL         0.1977
      3 C7          6.7240   43.5570   -3.6360 C.3       1 MOL        -0.0333
      4 C8          7.5410   44.7230   -4.1590 C.3       1 MOL        -0.0598
      5 C12         5.9370   44.1150   -2.4730 C.3       1 MOL        -0.0598
      6 C16         5.7530   43.0810   -4.7890 C.3       1 MOL        -0.0598
      7 C20         8.6720   42.7890   -2.1700 C.3       1 MOL        -0.0601
      8 O28         7.7640   38.9380   -3.8920 O.2       1 MOL        -0.3950
      9 C30         9.2800   37.9170   -1.1840 C.3       1 MOL        -0.0429
     10 C31         9.1290   36.3990   -1.3030 C.3       1 MOL        -0.0625
     11 C35         9.5230   38.3220    0.2810 C.3       1 MOL        -0.0625
     12 N1         11.3020   38.7790   -4.3030 N.am      1 MOL        -0.2736
     13 N4          9.2680   40.6570   -4.0650 N.am      1 MOL        -0.2851
     14 C5          8.2720   41.6780   -4.3860 C.3       1 MOL         0.0340
     15 C6          7.6420   42.3610   -3.1670 C.3       1 MOL        -0.0188
     16 C29        10.4170   38.4530   -2.0770 C.3       1 MOL        -0.0137
     17 P44        11.5140   38.4900   -5.9170 P.3       1 MOL         0.0870
     18 O45        10.1680   38.0720   -6.5050 O.co2     1 MOL        -0.6057
     19 C46        11.9820   40.1150   -6.5850 C.3       1 MOL         0.1132
     20 C50        13.6480   41.6140  -10.8340 C.3       1 MOL         0.1113
     21 C51        15.0050   41.1970  -11.4020 C.ar      1 MOL        -0.0130
     22 C52        15.1060   40.6870  -12.6940 C.ar      1 MOL        -0.0578
     23 C54        16.3590   40.3360  -13.2110 C.ar      1 MOL        -0.0685
     24 C56        17.5240   40.4580  -12.4440 C.ar      1 MOL        -0.0687
     25 C58        17.4240   41.0020  -11.1570 C.ar      1 MOL        -0.0685
     26 C60        16.1840   41.3640  -10.6410 C.ar      1 MOL        -0.0578
     27 O68        12.5930   37.4930   -6.1820 O.co2     1 MOL        -0.6057
     28 N47        12.0070   40.0280   -8.0290 N.am      1 MOL        -0.2448
     29 C48        12.9750   40.7790   -8.7470 C.2       1 MOL         0.3229
     30 O49        12.8430   40.6410  -10.1580 O.3       1 MOL        -0.2506
     31 O64        13.7100   41.6300   -8.2030 O.2       1 MOL        -0.3774
     32 H1          9.8075   37.3923   -3.8458 H         1 MOL         0.0753
     33 H2          6.8655   45.5319   -4.4741 H         1 MOL         0.0235
     34 H3          8.1432   44.3927   -5.0182 H         1 MOL         0.0235
     35 H4          8.2068   45.0901   -3.3640 H         1 MOL         0.0235
     36 H5          5.3139   43.3203   -2.0370 H         1 MOL         0.0235
     37 H6          5.2929   44.9341   -2.8254 H         1 MOL         0.0235
     38 H7          6.6312   44.4967   -1.7099 H         1 MOL         0.0235
     39 H8          6.3451   42.6790   -5.6244 H         1 MOL         0.0235
     40 H9          5.1552   43.9347   -5.1408 H         1 MOL         0.0235
     41 H10         5.0831   42.2980   -4.4043 H         1 MOL         0.0235
     42 H11         9.2820   41.9216   -1.8777 H         1 MOL         0.0233
     43 H12         8.1726   43.2022   -1.2813 H         1 MOL         0.0233
     44 H13         9.3187   43.5578   -2.6179 H         1 MOL         0.0233
     45 H14         8.3389   38.3782   -1.5180 H         1 MOL         0.0298
     46 H15         8.3098   36.0599   -0.6519 H         1 MOL         0.0232
     47 H16        10.0665   35.9121   -0.9965 H         1 MOL         0.0232
     48 H17         8.9020   36.1337   -2.3461 H         1 MOL         0.0232
     49 H18         9.6289   39.4149    0.3465 H         1 MOL         0.0232
     50 H19        10.4428   37.8420    0.6464 H         1 MOL         0.0232
     51 H20         8.6710   37.9986    0.8970 H         1 MOL         0.0232
     52 H21        12.0427   39.2284   -3.8035 H         1 MOL         0.1669
     53 H22        10.2281   40.9252   -3.9863 H         1 MOL         0.1851
     54 H23         7.4677   41.2022   -4.9663 H         1 MOL         0.0523
     55 H24         8.7585   42.4511   -4.9990 H         1 MOL         0.0523
     56 H25         6.9961   41.6231   -2.6688 H         1 MOL         0.0323
     57 H26        10.6206   39.4956   -1.7915 H         1 MOL         0.0311
     58 H27        11.3147   37.8424   -1.9001 H         1 MOL         0.0311
     59 H28        12.9783   40.3962   -6.2130 H         1 MOL         0.0743
     60 H29        11.2468   40.8708   -6.2716 H         1 MOL         0.0743
     61 H30        13.0512   41.9956  -11.6755 H         1 MOL         0.0776
     62 H31        13.8358   42.4282  -10.1186 H         1 MOL         0.0776
     63 H32        14.2152   40.5619  -13.2989 H         1 MOL         0.0557
     64 H33        16.4285   39.9621  -14.2261 H         1 MOL         0.0599
     65 H34        18.4822   40.1385  -12.8374 H         1 MOL         0.0559
     66 H35        18.3179   41.1416  -10.5599 H         1 MOL         0.0599
     67 H36        16.1212   41.7797   -9.6419 H         1 MOL         0.0557
     68 H37        11.3526   39.4479   -8.5140 H         1 MOL         0.1884
@<TRIPOS>BOND
     1    1    2 1  
     2   12    1 1  
     3    1   16 1  
     4    2    8 2  
     5    2   13 am 
     6    3    4 1  
     7    3    5 1  
     8    3    6 1  
     9   15    3 1  
    10   15    7 1  
    11    9   10 1  
    12    9   11 1  
    13   16    9 1  
    14   17   12 am 
    15   13   14 1  
    16   14   15 1  
    17   17   18 ar 
    18   19   17 1  
    19   17   27 ar 
    20   28   19 1  
    21   20   21 1  
    22   30   20 1  
    23   21   22 ar 
    24   21   26 ar 
    25   22   23 ar 
    26   23   24 ar 
    27   25   24 ar 
    28   26   25 ar 
    29   29   28 am 
    30   29   30 1  
    31   29   31 2  
    32    1   32 1  
    33    4   33 1  
    34    4   34 1  
    35    4   35 1  
    36    5   36 1  
    37    5   37 1  
    38    5   38 1  
    39    6   39 1  
    40    6   40 1  
    41    6   41 1  
    42    7   42 1  
    43    7   43 1  
    44    7   44 1  
    45    9   45 1  
    46   10   46 1  
    47   10   47 1  
    48   10   48 1  
    49   11   49 1  
    50   11   50 1  
    51   11   51 1  
    52   12   52 1  
    53   13   53 1  
    54   14   54 1  
    55   14   55 1  
    56   15   56 1  
    57   16   57 1  
    58   16   58 1  
    59   19   59 1  
    60   19   60 1  
    61   20   61 1  
    62   20   62 1  
    63   22   63 1  
    64   23   64 1  
    65   24   65 1  
    66   25   66 1  
    67   26   67 1  
    68   28   68 1  
@<TRIPOS>SUBSTRUCTURE
     1 MOL         1

