3kmc_ligand

Created by X-TOOL on Fri Nov 18 15:52:59 2016
 67 66  0  0  0  0  0  0  0  0999 V2000
    6.7220    6.2060   24.4060  N 0  0  0  2  0  3
    8.9670    8.1120   27.5040  C 0  0  0  4  0  4
    7.9820    3.6930   25.1480  O 0  0  0  1  0  1
    6.4950   -0.2030   25.0330  N 0  0  0  2  0  3
    5.9350    7.1850   24.9830  C 0  0  0  1  0  3
    6.5800   12.7310   25.0080  O 0  0  0  2  0  2
    6.1860    4.9020   24.0010  C 0  0  0  2  0  4
    6.4010    4.6820   22.4590  C 0  0  0  1  0  4
    5.5920    5.7640   21.6340  C 0  0  0  4  0  4
    7.9230    4.7330   22.0880  C 0  0  0  4  0  4
    6.7660    3.8100   24.9280  C 0  0  0  1  0  3
    6.0990    1.8840   26.3740  C 0  0  0  2  0  4
    5.2720    1.9580   27.6700  C 0  0  0  4  0  4
    5.7530   11.7290   24.5300  N 0  0  0  2  0  3
    6.5460   10.7030   24.2160  C 0  0  0  1  0  3
    7.7190   10.7170   23.8570  O 0  0  0  1  0  1
    5.8390    9.4920   24.4270  C 0  0  0  3  0  4
    6.6460    8.5330   25.3090  C 0  0  0  2  0  4
    6.6100    9.0140   26.7680  C 0  0  0  3  0  4
    7.4520    7.9930   27.6190  C 0  0  0  2  0  4
    7.1040    8.3000   29.0830  C 0  0  0  4  0  4
    4.7460    7.0770   25.2150  O 0  0  0  1  0  1
    5.8700    3.2910   22.0980  C 0  0  0  4  0  4
    5.8000    2.9990   25.4800  N 0  0  0  2  0  3
    5.5760    0.7200   25.5430  C 0  0  0  1  0  3
    4.3770    0.6440   25.3660  O 0  0  0  1  0  1
    6.0320   -1.3480   24.2320  C 0  0  0  3  0  4
    7.0420   -1.8700   23.2130  C 0  0  0  3  0  4
    6.4290   -1.8950   21.8750  N 0  3  0  4  0  4
    7.6932    6.3938   24.2592  H 0  0  0  1  0  1
    9.4438    7.3513   28.1396  H 0  0  0  1  0  1
    9.2821    9.1136   27.8319  H 0  0  0  1  0  1
    9.2686    7.9570   26.4576  H 0  0  0  1  0  1
    7.4714   -0.0844   25.2134  H 0  0  0  1  0  1
    7.2020   12.9756   24.3330  H 0  0  0  1  0  1
    5.0988    4.9156   24.1674  H 0  0  0  1  0  1
    5.7509    5.5989   20.5581  H 0  0  0  1  0  1
    5.9428    6.7704   21.9062  H 0  0  0  1  0  1
    4.5201    5.6746   21.8642  H 0  0  0  1  0  1
    8.4679    3.9754   22.6703  H 0  0  0  1  0  1
    8.3235    5.7310   22.3192  H 0  0  0  1  0  1
    8.0457    4.5283   21.0142  H 0  0  0  1  0  1
    7.1727    1.8050   26.5995  H 0  0  0  1  0  1
    5.5246    1.1038   28.3154  H 0  0  0  1  0  1
    4.2004    1.9270   27.4235  H 0  0  0  1  0  1
    5.5000    2.8960   28.1974  H 0  0  0  1  0  1
    4.7579   11.7667   24.4382  H 0  0  0  1  0  1
    5.6478    9.0128   23.4555  H 0  0  0  1  0  1
    4.8816    9.7154   24.9204  H 0  0  0  1  0  1
    7.6983    8.4854   24.9921  H 0  0  0  1  0  1
    5.5717    9.0395   27.1303  H 0  0  0  1  0  1
    7.0496   10.0195   26.8437  H 0  0  0  1  0  1
    7.1544    6.9692   27.3485  H 0  0  0  1  0  1
    7.6609    7.6185   29.7429  H 0  0  0  1  0  1
    6.0241    8.1614   29.2401  H 0  0  0  1  0  1
    7.3778    9.3399   29.3147  H 0  0  0  1  0  1
    4.8009    3.2300   22.3496  H 0  0  0  1  0  1
    6.4242    2.5284   22.6649  H 0  0  0  1  0  1
    6.0036    3.1158   21.0203  H 0  0  0  1  0  1
    4.8428    3.1834   25.2568  H 0  0  0  1  0  1
    5.1261   -1.0410   23.6887  H 0  0  0  1  0  1
    5.7858   -2.1696   24.9207  H 0  0  0  1  0  1
    7.3509   -2.8880   23.4927  H 0  0  0  1  0  1
    7.9222   -1.2104   23.1996  H 0  0  0  1  0  1
    7.0985   -2.2400   21.2051  H 0  0  0  1  0  1
    6.1462   -0.9624   21.6175  H 0  0  0  1  0  1
    5.6226   -2.4997   21.8861  H 0  0  0  1  0  1
  5  1  1  0  0  2
  1  7  1  0  0  2
 20  2  1  0  0  2
 11  3  2  0  0  2
 25  4  1  0  0  2
  4 27  1  0  0  2
 18  5  1  0  0  2
  5 22  2  0  0  2
 14  6  1  0  0  2
  7  8  1  0  0  2
  7 11  1  0  0  2
  8  9  1  0  0  2
  8 10  1  0  0  2
  8 23  1  0  0  2
 11 24  1  0  0  2
 12 13  1  0  0  2
 24 12  1  0  0  2
 12 25  1  0  0  2
 15 14  1  0  0  2
 15 16  2  0  0  2
 17 15  1  0  0  2
 18 17  1  0  0  2
 19 18  1  0  0  2
 19 20  1  0  0  2
 20 21  1  0  0  2
 25 26  2  0  0  2
 27 28  1  0  0  2
 28 29  1  0  0  2
  1 30  1  0  0  2
  2 31  1  0  0  2
  2 32  1  0  0  2
  2 33  1  0  0  2
  4 34  1  0  0  2
  6 35  1  0  0  2
  7 36  1  0  0  2
  9 37  1  0  0  2
  9 38  1  0  0  2
  9 39  1  0  0  2
 10 40  1  0  0  2
 10 41  1  0  0  2
 10 42  1  0  0  2
 12 43  1  0  0  2
 13 44  1  0  0  2
 13 45  1  0  0  2
 13 46  1  0  0  2
 14 47  1  0  0  2
 17 48  1  0  0  2
 17 49  1  0  0  2
 18 50  1  0  0  2
 19 51  1  0  0  2
 19 52  1  0  0  2
 20 53  1  0  0  2
 21 54  1  0  0  2
 21 55  1  0  0  2
 21 56  1  0  0  2
 23 57  1  0  0  2
 23 58  1  0  0  2
 23 59  1  0  0  2
 24 60  1  0  0  2
 27 61  1  0  0  2
 27 62  1  0  0  2
 28 63  1  0  0  2
 28 64  1  0  0  2
 29 65  1  0  0  2
 29 66  1  0  0  2
 29 67  1  0  0  2
M  END
> <MOLECULAR_FORMULA>
C19H38N5O5

> <MOLECULAR_WEIGHT>
416.2

> <NUM_HB_ATOMS>
10 

> <NUM_ROTOR>
11 

> <XLOGP2>
-0.26

$$$$
