### 
### Created by X-TOOL on Wed Dec 13 14:20:10 2017
### 

@<TRIPOS>MOLECULE
5jt9_ligand
   47    47     1     0     0
SMALL
GAST_HUCK


@<TRIPOS>ATOM
      1 C1         15.0620   40.6890  -12.6620 C.ar      1 MOL        -0.0578
      2 C2         16.3070   40.3010  -13.1870 C.ar      1 MOL        -0.0685
      3 C3         17.4700   40.4280  -12.4140 C.ar      1 MOL        -0.0687
      4 C7         13.5910   41.6190  -10.8240 C.3       1 MOL         0.1113
      5 C9         12.6710   40.9390   -8.7510 C.2       1 MOL         0.3229
      6 C12        11.9750   40.0980   -6.6050 C.3       1 MOL         0.1132
      7 C19         9.2730   37.8910   -1.1600 C.3       1 MOL        -0.0429
      8 C20         9.1180   36.3700   -1.2950 C.3       1 MOL        -0.0625
      9 C21         9.5470   38.2970    0.3020 C.3       1 MOL        -0.0625
     10 C22         8.9310   39.3210   -3.8590 C.2       1 MOL         0.1952
     11 O15        10.1660   38.0560   -6.4990 O.co2     1 MOL        -0.6057
     12 P13        11.5060   38.4680   -5.9360 P.3       1 MOL         0.0870
     13 C6         14.9650   41.2060  -11.3730 C.ar      1 MOL        -0.0130
     14 C4         17.3770   40.9740  -11.1220 C.ar      1 MOL        -0.0685
     15 C5         16.1380   41.3430  -10.6050 C.ar      1 MOL        -0.0578
     16 N16        11.3010   38.7890   -4.1840 N.am      1 MOL        -0.2736
     17 C17        10.0680   38.3750   -3.5680 C.3       1 MOL         0.1226
     18 C18        10.4060   38.4210   -2.0700 C.3       1 MOL        -0.0137
     19 O23         7.7760   38.8980   -3.8960 O.2       1 MOL        -0.3952
     20 N24         9.2510   40.6110   -4.0490 N.am      1 MOL        -0.2993
     21 O14        12.5950   37.4700   -6.1840 O.co2     1 MOL        -0.6057
     22 N11        12.6840   39.9420   -7.8560 N.am      1 MOL        -0.2448
     23 O10        11.9520   41.9270   -8.7120 O.2       1 MOL        -0.3774
     24 O8         13.3900   40.5890   -9.8170 O.3       1 MOL        -0.2506
     25 H1         14.1685   40.5846  -13.2669 H         1 MOL         0.0557
     26 H2         16.3682   39.9022  -14.1931 H         1 MOL         0.0599
     27 H3         18.4284   40.1093  -12.8076 H         1 MOL         0.0559
     28 H4         12.8147   41.5833  -11.6025 H         1 MOL         0.0776
     29 H5         13.6169   42.6241  -10.3778 H         1 MOL         0.0776
     30 H6         12.6239   40.6139   -5.8821 H         1 MOL         0.0743
     31 H7         11.0672   40.6956   -6.7745 H         1 MOL         0.0743
     32 H8          8.3289   38.3582   -1.4767 H         1 MOL         0.0298
     33 H9          8.3068   36.0243   -0.6374 H         1 MOL         0.0232
     34 H10        10.0587   35.8785   -1.0062 H         1 MOL         0.0232
     35 H11         8.8773   36.1171   -2.3381 H         1 MOL         0.0232
     36 H12         9.6529   39.3901    0.3653 H         1 MOL         0.0232
     37 H13        10.4750   37.8181    0.6478 H         1 MOL         0.0232
     38 H14         8.7087   37.9726    0.9359 H         1 MOL         0.0232
     39 H15        18.2727   41.1082  -10.5264 H         1 MOL         0.0599
     40 H16        16.0752   41.7408   -9.5986 H         1 MOL         0.0557
     41 H17        12.0185   39.2401   -3.6533 H         1 MOL         0.1669
     42 H18         9.7921   37.3593   -3.8876 H         1 MOL         0.0753
     43 H19        11.3042   37.8098   -1.8979 H         1 MOL         0.0311
     44 H20        10.6142   39.4650   -1.7930 H         1 MOL         0.0311
     45 H21         8.5343   41.2803   -4.2452 H         1 MOL         0.1815
     46 H22        10.2060   40.9025   -3.9943 H         1 MOL         0.1815
     47 H23        13.1803   39.0961   -8.0515 H         1 MOL         0.1884
@<TRIPOS>BOND
     1    1    2 ar 
     2   13    1 ar 
     3    2    3 ar 
     4   14    3 ar 
     5    4   13 1  
     6   24    4 1  
     7   22    5 am 
     8    5   23 2  
     9    5   24 1  
    10   12    6 1  
    11    6   22 1  
    12    7    8 1  
    13    7    9 1  
    14   18    7 1  
    15   17   10 1  
    16   10   19 2  
    17   10   20 am 
    18   12   11 ar 
    19   16   12 am 
    20   12   21 ar 
    21   13   15 ar 
    22   15   14 ar 
    23   17   16 1  
    24   17   18 1  
    25    1   25 1  
    26    2   26 1  
    27    3   27 1  
    28    4   28 1  
    29    4   29 1  
    30    6   30 1  
    31    6   31 1  
    32    7   32 1  
    33    8   33 1  
    34    8   34 1  
    35    8   35 1  
    36    9   36 1  
    37    9   37 1  
    38    9   38 1  
    39   14   39 1  
    40   15   40 1  
    41   16   41 1  
    42   17   42 1  
    43   18   43 1  
    44   18   44 1  
    45   20   45 1  
    46   20   46 1  
    47   22   47 1  
@<TRIPOS>SUBSTRUCTURE
     1 MOL         1

