### 
### Created by X-TOOL on Fri Nov 18 16:39:51 2016
### 

@<TRIPOS>MOLECULE
3ozg_ligand
   37    38     1     0     0
SMALL
GAST_HUCK


@<TRIPOS>ATOM
      1 P          65.7260   35.7830   71.4690 P.3       1 SSI         0.0581
      2 N1         64.4740   37.4540   80.4880 N.am      1 SSI        -0.2067
      3 C2         63.3060   36.8340   80.2540 C.2       1 SSI         0.1146
      4 N3         63.0160   36.2470   79.0900 N.2       1 SSI        -0.3199
      5 C4         63.9470   36.2890   78.1100 C.2       1 SSI         0.0180
      6 C5         65.2460   36.9460   78.2820 C.2       1 SSI         0.1348
      7 C6         65.4750   37.5640   79.6040 C.2       1 SSI         0.2413
      8 O6         66.5660   38.1620   79.8780 O.2       1 SSI        -0.4013
      9 N7         65.9200   36.8070   77.1280 N.pl3     1 SSI        -0.2895
     10 C8         65.1680   36.0890   76.2310 C.2       1 SSI         0.0220
     11 C9         63.9170   35.7300   76.7400 C.2       1 SSI         0.0000
     12 C1'        62.8070   34.9170   76.0880 C.3       1 SSI        -0.0160
     13 O1P        65.1000   34.6660   70.6430 O.co2     1 SSI        -0.5623
     14 O2P        66.3680   36.8810   70.6700 O.co2     1 SSI        -0.5623
     15 C3'        61.2720   36.6510   73.0790 C.3       1 SSI         0.0869
     16 O3'        60.1080   37.0790   73.8070 O.3       1 SSI        -0.3895
     17 O3P        66.6050   35.3450   72.6090 O.co2     1 SSI        -0.5623
     18 C4'        62.4480   36.3670   74.0060 C.3       1 SSI         0.0030
     19 N4'        61.9480   35.6070   75.1490 N.4       1 SSI         0.2376
     20 C5'        63.5530   35.6340   73.2260 C.3       1 SSI         0.0074
     21 C6'        64.3020   36.5820   72.2800 C.3       1 SSI         0.0247
     22 H1         64.6068   37.8646   81.3901 H         1 SSI         0.2519
     23 H2         62.5621   36.8087   81.0489 H         1 SSI         0.1426
     24 H3         66.8610   37.1831   76.9436 H         1 SSI         0.2273
     25 H4         65.5097   35.8275   75.2306 H         1 SSI         0.0779
     26 H5         62.1689   34.5226   76.8925 H         1 SSI         0.0898
     27 H6         63.2798   34.0810   75.5518 H         1 SSI         0.0898
     28 H7         61.5599   37.4422   72.3712 H         1 SSI         0.0614
     29 H8         61.0270   35.7336   72.5237 H         1 SSI         0.0614
     30 H9         60.3098   37.8746   74.2854 H         1 SSI         0.2097
     31 H10        62.8595   37.3190   74.3724 H         1 SSI         0.0874
     32 H11        61.4075   36.2578   75.6971 H         1 SSI         0.2025
     33 H12        61.3375   34.9026   74.7654 H         1 SSI         0.2025
     34 H13        63.0966   34.8268   72.6343 H         1 SSI         0.0334
     35 H14        64.2696   35.2042   73.9414 H         1 SSI         0.0334
     36 H15        63.6039   36.9293   71.5041 H         1 SSI         0.0453
     37 H16        64.6646   37.4438   72.8594 H         1 SSI         0.0453
@<TRIPOS>BOND
     1    1   13 ar 
     2    1   14 ar 
     3    1   17 ar 
     4   21    1 1  
     5    3    2 1  
     6    7    2 am 
     7    4    3 2  
     8    5    4 1  
     9    5    6 2  
    10   11    5 1  
    11    6    7 1  
    12    9    6 1  
    13    7    8 2  
    14   10    9 1  
    15   11   10 2  
    16   12   11 1  
    17   19   12 1  
    18   15   16 1  
    19   18   15 1  
    20   18   19 1  
    21   20   18 1  
    22   20   21 1  
    23    2   22 1  
    24    3   23 1  
    25    9   24 1  
    26   10   25 1  
    27   12   26 1  
    28   12   27 1  
    29   15   28 1  
    30   15   29 1  
    31   16   30 1  
    32   18   31 1  
    33   19   32 1  
    34   19   33 1  
    35   20   34 1  
    36   20   35 1  
    37   21   36 1  
    38   21   37 1  
@<TRIPOS>SUBSTRUCTURE
     1 SSI         1

