### 
### Created by X-TOOL on Fri Nov 18 13:09:20 2016
### 

@<TRIPOS>MOLECULE
1h2t_ligand
   80    85     1     0     0
SMALL
GAST_HUCK


@<TRIPOS>ATOM
      1 PB        -16.6240   27.7060   76.5890 P.3       1 GDP         0.3355
      2 O1B       -16.0280   28.9730   76.0280 O.co2     1 GDP        -0.6079
      3 O2B       -15.8950   26.9580   77.6730 O.co2     1 GDP        -0.6079
      4 O3B       -16.8810   26.6810   75.3750 O.3       1 GDP        -0.1265
      5 O3A       -18.0760   28.0470   77.2030 O.3       1 GDP        -0.1265
      6 PA        -19.2350   29.1180   76.8790 P.3       1 GDP         0.2978
      7 O1A       -19.8580   28.7870   75.5400 O.co2     1 GDP        -0.6127
      8 O2A       -18.7020   30.5080   77.1250 O.co2     1 GDP        -0.6127
      9 O5        -20.2960   28.7870   78.0250 O.3       1 GDP        -0.2476
     10 C5        -21.6330   29.3440   77.9700 C.3       1 GDP         0.1128
     11 C4        -22.4790   28.8590   79.1360 C.3       1 GDP         0.1189
     12 O4        -23.8240   29.4020   78.9740 O.3       1 GDP        -0.3363
     13 C3        -22.6380   27.3420   79.2510 C.3       1 GDP         0.1150
     14 O3        -22.6700   26.9620   80.6260 O.3       1 GDP        -0.3864
     15 C2        -23.9870   27.0730   78.5830 C.3       1 GDP         0.1387
     16 O2        -24.6510   25.9270   79.0800 O.3       1 GDP        -0.3836
     17 C1        -24.7670   28.3480   78.9060 C.3       1 GDP         0.1992
     18 N9        -25.7650   28.6810   77.8900 N.pl3     1 GDP        -0.2101
     19 C8        -27.1310   28.6940   78.0550 C.2       1 GDP         0.0957
     20 N7        -27.7760   29.0270   76.9710 N.2       1 GDP        -0.3235
     21 C5        -26.7800   29.2510   76.0290 C.2       1 GDP         0.0926
     22 C6        -26.8740   29.6450   74.6680 C.2       1 GDP         0.2135
     23 O6        -27.8900   29.8790   73.9990 O.2       1 GDP        -0.4091
     24 N1        -25.6190   29.7600   74.0820 N.am      1 GDP        -0.1839
     25 C2        -24.4230   29.5290   74.7180 C.2       1 GDP         0.2340
     26 N2        -23.3130   29.6980   73.9800 N.pl3     1 GDP        -0.2807
     27 N3        -24.3210   29.1600   75.9850 N.2       1 GDP        -0.2765
     28 C4        -25.5310   29.0420   76.5770 C.2       1 GDP         0.1159
     29 P         -16.0510   26.2810   74.0480 P.3       1 GDP         0.2978
     30 O1P       -16.1060   27.4340   73.0640 O.co2     1 GDP        -0.6127
     31 O2P       -16.5120   24.9100   73.6040 O.co2     1 GDP        -0.6127
     32 O5        -14.5560   26.1540   74.5870 O.3       1 GDP        -0.2476
     33 C5        -13.4880   25.6920   73.7300 C.3       1 GDP         0.1127
     34 C4        -12.2080   26.4460   74.0350 C.3       1 GDP         0.1181
     35 O4        -12.2930   27.7890   73.4900 O.3       1 GDP        -0.3437
     36 C3        -11.8820   26.6010   75.5170 C.3       1 GDP         0.1141
     37 O3        -10.4760   26.5090   75.7150 O.3       1 GDP        -0.3864
     38 C2        -12.3610   28.0160   75.8360 C.3       1 GDP         0.1303
     39 O2        -11.6720   28.6250   76.9150 O.3       1 GDP        -0.3844
     40 C1        -12.0880   28.7390   74.5190 C.3       1 GDP         0.1690
     41 N9        -12.9590   29.8840   74.2640 N.pl3     1 GDP        -0.2656
     42 C8        -14.2470   29.8520   73.7890 C.3       1 GDP         0.0992
     43 N7        -14.7870   31.0970   73.6380 N.pl3     1 GDP        -0.3187
     44 C5        -13.7560   31.9380   74.0470 C.2       1 GDP         0.1049
     45 C6        -13.7190   33.3540   74.1120 C.2       1 GDP         0.2109
     46 O6        -14.5960   34.1620   73.7920 O.2       1 GDP        -0.4227
     47 N1        -12.5010   33.8140   74.6020 N.am      1 GDP        -0.1887
     48 C2        -11.4450   33.0180   74.9730 C.2       1 GDP         0.2289
     49 N2        -10.3540   33.6600   75.4290 N.pl3     1 GDP        -0.2835
     50 N3        -11.4580   31.6940   74.9060 N.2       1 GDP        -0.2892
     51 C4        -12.6360   31.2210   74.4410 C.2       1 GDP         0.0803
     52 CM7       -16.1160   31.4360   73.1630 C.3       1 GDP         0.0060
     53 H1        -22.1110   29.0373   77.0280 H         1 GDP         0.0648
     54 H2        -21.5664   30.4413   78.0071 H         1 GDP         0.0648
     55 H3        -22.0294   29.2349   80.0669 H         1 GDP         0.0651
     56 H4        -21.8246   26.8123   78.7335 H         1 GDP         0.0648
     57 H5        -22.7688   26.0193   80.6907 H         1 GDP         0.2100
     58 H6        -23.8581   26.9585   77.4966 H         1 GDP         0.0676
     59 H7        -25.4776   25.8189   78.6245 H         1 GDP         0.2101
     60 H8        -25.2719   28.2281   79.8759 H         1 GDP         0.0998
     61 H9        -27.6238   28.4509   78.9952 H         1 GDP         0.1179
     62 H10       -25.5835   30.0327   73.1205 H         1 GDP         0.2515
     63 H11       -22.3861   29.5399   74.4004 H         1 GDP         0.1897
     64 H12       -23.3890   29.9856   72.9939 H         1 GDP         0.1897
     65 H13       -13.7669   25.8599   72.6793 H         1 GDP         0.0648
     66 H14       -13.3256   24.6173   73.8991 H         1 GDP         0.0648
     67 H15       -11.3790   25.9067   73.5534 H         1 GDP         0.0651
     68 H16       -12.4036   25.8493   76.1277 H         1 GDP         0.0648
     69 H17       -10.1695   25.6621   75.4129 H         1 GDP         0.2100
     70 H18       -13.4366   28.0135   76.0661 H         1 GDP         0.0668
     71 H19       -12.0185   29.4979   77.0582 H         1 GDP         0.2101
     72 H20       -11.0440   29.0855   74.5129 H         1 GDP         0.0890
     73 H21       -14.8683   29.2831   74.4963 H         1 GDP         0.0757
     74 H22       -14.2486   29.3475   72.8115 H         1 GDP         0.0757
     75 H23       -12.3850   34.8032   74.6912 H         1 GDP         0.2504
     76 H24        -9.5262   33.1229   75.7242 H         1 GDP         0.1881
     77 H25       -10.3467   34.6886   75.4829 H         1 GDP         0.1881
     78 H26       -16.2365   32.5294   73.1602 H         1 GDP         0.0457
     79 H27       -16.8686   30.9859   73.8270 H         1 GDP         0.0457
     80 H28       -16.2500   31.0498   72.1418 H         1 GDP         0.0457
@<TRIPOS>BOND
     1    1    2 ar 
     2    1    3 ar 
     3    1    4 1  
     4    1    5 1  
     5    4   29 1  
     6    5    6 1  
     7    6    7 ar 
     8    6    8 ar 
     9    6    9 1  
    10    9   10 1  
    11   10   11 1  
    12   11   12 1  
    13   11   13 1  
    14   12   17 1  
    15   13   14 1  
    16   13   15 1  
    17   15   16 1  
    18   15   17 1  
    19   17   18 1  
    20   18   19 1  
    21   18   28 1  
    22   19   20 2  
    23   20   21 1  
    24   21   22 1  
    25   21   28 2  
    26   22   23 2  
    27   22   24 am 
    28   24   25 am 
    29   25   26 1  
    30   25   27 2  
    31   27   28 1  
    32   29   30 ar 
    33   29   31 ar 
    34   29   32 1  
    35   32   33 1  
    36   33   34 1  
    37   34   35 1  
    38   34   36 1  
    39   35   40 1  
    40   36   37 1  
    41   36   38 1  
    42   38   39 1  
    43   38   40 1  
    44   40   41 1  
    45   41   42 1  
    46   41   51 1  
    47   42   43 1  
    48   43   44 1  
    49   43   52 1  
    50   44   45 1  
    51   44   51 2  
    52   45   46 2  
    53   45   47 am 
    54   47   48 am 
    55   48   49 1  
    56   48   50 2  
    57   50   51 1  
    58   10   53 1  
    59   10   54 1  
    60   11   55 1  
    61   13   56 1  
    62   14   57 1  
    63   15   58 1  
    64   16   59 1  
    65   17   60 1  
    66   19   61 1  
    67   24   62 1  
    68   26   63 1  
    69   26   64 1  
    70   33   65 1  
    71   33   66 1  
    72   34   67 1  
    73   36   68 1  
    74   37   69 1  
    75   38   70 1  
    76   39   71 1  
    77   40   72 1  
    78   42   73 1  
    79   42   74 1  
    80   47   75 1  
    81   49   76 1  
    82   49   77 1  
    83   52   78 1  
    84   52   79 1  
    85   52   80 1  
@<TRIPOS>SUBSTRUCTURE
     1 GDP         1

