5fwr_ligand

Created by X-TOOL on Wed Dec 13 14:18:55 2017
 44 46  0  0  0  0  0  0  0  0999 V2000
    8.3900   17.0950  -12.8030  C 0  0  0  2  0  4
    7.3480   17.6250  -13.7680  C 0  0  0  2  0  4
    7.9850   17.5270  -15.1320  C 0  0  0  3  0  4
    7.8870   17.1840  -11.3970  C 0  0  0  2  0  4
    2.4410   23.5430  -14.5150  C 0  0  0  2  0  3
    1.6300   24.5020  -15.1340  C 0  0  0  2  0  3
    0.5180   24.1030  -15.8910  C 0  0  0  2  0  3
    0.2210   22.7290  -16.0360  C 0  0  0  2  0  3
    1.0300   21.7590  -15.4050  C 0  0  0  2  0  3
    2.1430   22.1580  -14.6410  C 0  0  0  1  0  3
    2.9840   21.1120  -13.9560  C 0  0  0  1  0  3
    3.5320   21.4030  -12.7010  C 0  0  0  2  0  3
    4.3090   20.4450  -12.0380  C 0  0  0  2  0  3
    3.1830   19.8300  -14.4990  C 0  0  0  2  0  3
    3.9600   18.8900  -13.8290  C 0  0  0  2  0  3
    4.5180   19.1770  -12.5890  C 0  0  0  1  0  3
    5.2910   18.2650  -11.8910  O 0  0  0  1  0  2
    5.6000   16.9330  -12.3130  C 0  0  0  2  0  4
    6.1060   16.9230  -13.6540  O 0  0  0  1  0  2
    8.2440   16.1720  -15.4820  O 0  0  0  2  0  2
    9.4920   17.9470  -12.8620  O 0  0  0  2  0  2
    8.9100   16.7220  -10.5700  O 0  0  0  2  0  2
    6.5560   16.4370  -11.2590  C 0  0  0  2  0  4
    6.6850   15.0290  -11.4240  O 0  0  0  2  0  2
    8.6645   16.0610  -13.0590  H 0  0  0  1  0  1
    7.1515   18.6837  -13.5434  H 0  0  0  1  0  1
    8.9337   18.0838  -15.1260  H 0  0  0  1  0  1
    7.3063   17.9669  -15.8776  H 0  0  0  1  0  1
    7.6991   18.2393  -11.1499  H 0  0  0  1  0  1
    3.3015   23.8582  -13.9360  H 0  0  0  1  0  1
    1.8619   25.5556  -15.0281  H 0  0  0  1  0  1
   -0.1123   24.8475  -16.3638  H 0  0  0  1  0  1
   -0.6294   22.4193  -16.6327  H 0  0  0  1  0  1
    0.7938   20.7062  -15.5090  H 0  0  0  1  0  1
    3.3550   22.3693  -12.2428  H 0  0  0  1  0  1
    4.7560   20.6906  -11.0815  H 0  0  0  1  0  1
    2.7270   19.5719  -15.4479  H 0  0  0  1  0  1
    4.1325   17.9199  -14.2808  H 0  0  0  1  0  1
    4.6916   16.3129  -12.2944  H 0  0  0  1  0  1
    8.6440   16.1394  -16.3431  H 0  0  0  1  0  1
    9.8563   17.9314  -13.7392  H 0  0  0  1  0  1
    9.6802   17.2655  -10.6872  H 0  0  0  1  0  1
    6.1430   16.6407  -10.2601  H 0  0  0  1  0  1
    7.2841   14.6883  -10.7703  H 0  0  0  1  0  1
  2  1  1  0  0  1
  1  4  1  0  0  1
  1 21  1  0  0  2
  2  3  1  0  0  2
 19  2  1  0  0  1
  3 20  1  0  0  2
  4 22  1  0  0  2
  4 23  1  0  0  1
  5  6  4  0  0  1
 10  5  4  0  0  1
  6  7  4  0  0  1
  8  7  4  0  0  1
  9  8  4  0  0  1
 10  9  4  0  0  1
 11 10  1  0  0  2
 12 11  4  0  0  1
 14 11  4  0  0  1
 13 12  4  0  0  1
 16 13  4  0  0  1
 15 14  4  0  0  1
 16 15  4  0  0  1
 17 16  1  0  0  2
 18 17  1  0  0  2
 18 19  1  0  0  1
 18 23  1  0  0  1
 23 24  1  0  0  2
  1 25  1  0  0  2
  2 26  1  0  0  2
  3 27  1  0  0  2
  3 28  1  0  0  2
  4 29  1  0  0  2
  5 30  1  0  0  2
  6 31  1  0  0  2
  7 32  1  0  0  2
  8 33  1  0  0  2
  9 34  1  0  0  2
 12 35  1  0  0  2
 13 36  1  0  0  2
 14 37  1  0  0  2
 15 38  1  0  0  2
 18 39  1  0  0  2
 20 40  1  0  0  2
 21 41  1  0  0  2
 22 42  1  0  0  2
 23 43  1  0  0  2
 24 44  1  0  0  2
M  END
> <MOLECULAR_FORMULA>
C18H20O6

> <MOLECULAR_WEIGHT>
332.2

> <NUM_HB_ATOMS>
6  

> <NUM_ROTOR>
3  

> <XLOGP2>
1.57 

$$$$
