### 
### Created by X-TOOL on Wed Dec 13 14:17:40 2017
### 

@<TRIPOS>MOLECULE
5c2o_ligand
   42    43     1     0     0
SMALL
GAST_HUCK


@<TRIPOS>ATOM
      1 PA         67.0270   56.4620   38.8800 P.3       1 TTP         0.3266
      2 O1A        66.6320   56.6950   37.4380 O.co2     1 TTP        -0.5692
      3 O2A        65.8120   56.0830   39.7040 O.co2     1 TTP        -0.5692
      4 O3A        68.2090   55.3570   39.0850 O.3       1 TTP        -0.1171
      5 PB         68.6060   54.1580   38.0620 P.3       1 TTP         0.3553
      6 O1B        67.5910   54.0270   36.9300 O.co2     1 TTP        -0.5652
      7 O2B        68.7790   52.8350   38.7820 O.co2     1 TTP        -0.5652
      8 O3B        70.0810   54.5900   37.5410 O.3       1 TTP        -0.1546
      9 PG         70.3840   55.4410   36.1900 P.3       1 TTP         0.1879
     10 O1G        71.0470   54.5190   35.1850 O.co2     1 TTP        -0.6091
     11 O2G        71.3250   56.5730   36.5450 O.co2     1 TTP        -0.6091
     12 O3G        69.1210   56.0810   35.6430 O.co2     1 TTP        -0.6091
     13 O5'        67.7540   57.7910   39.4600 O.3       1 TTP        -0.2441
     14 C5'        68.6330   58.5280   38.6120 C.3       1 TTP         0.1130
     15 C4'        68.8450   59.9470   39.1230 C.3       1 TTP         0.1163
     16 O4'        68.7650   60.0010   40.5500 O.3       1 TTP        -0.3395
     17 C3'        70.2350   60.4180   38.7610 C.3       1 TTP         0.0889
     18 O3'        70.1070   61.7820   38.3830 O.3       1 TTP        -0.3890
     19 C2'        71.0390   60.3720   40.0500 C.3       1 TTP         0.0308
     20 C1'        69.9810   60.4700   41.1370 C.3       1 TTP         0.1757
     21 N1         70.3220   59.7040   42.3570 N.am      1 TTP        -0.1736
     22 C2         71.2540   60.2670   43.2750 C.2       1 TTP         0.3265
     23 O2         71.7670   61.3860   43.0220 O.2       1 TTP        -0.3843
     24 N3         71.5930   59.6310   44.4220 N.am      1 TTP        -0.1859
     25 C4         71.0590   58.4330   44.7180 C.2       1 TTP         0.1930
     26 O4         71.3770   57.8510   45.7810 O.2       1 TTP        -0.4079
     27 C5         70.0850   57.8080   43.7670 C.2       1 TTP         0.0225
     28 C5M        69.4630   56.4600   44.0770 C.3       1 TTP        -0.0437
     29 C6         69.7560   58.5040   42.6020 C.2       1 TTP         0.0524
     30 H1         68.2001   58.5732   37.6018 H         1 TTP         0.0648
     31 H2         69.6047   58.0141   38.5718 H         1 TTP         0.0648
     32 H3         68.0889   60.6106   38.6781 H         1 TTP         0.0650
     33 H4         70.6907   59.8095   37.9660 H         1 TTP         0.0622
     34 H5         69.5189   61.8497   37.6400 H         1 TTP         0.2099
     35 H6         71.7390   61.2186   40.1063 H         1 TTP         0.0344
     36 H7         71.5979   59.4280   40.1304 H         1 TTP         0.0344
     37 H8         69.8622   61.5253   41.4238 H         1 TTP         0.0959
     38 H9         72.2439   60.0547   45.0519 H         1 TTP         0.2259
     39 H10        68.7805   56.1751   43.2627 H         1 TTP         0.0296
     40 H11        68.9014   56.5236   45.0207 H         1 TTP         0.0296
     41 H12        70.2559   55.7035   44.1724 H         1 TTP         0.0296
     42 H13        69.0454   58.0799   41.8940 H         1 TTP         0.1011
@<TRIPOS>BOND
     1    1    2 ar 
     2    1    3 ar 
     3    1    4 1  
     4    1   13 1  
     5    4    5 1  
     6    5    6 ar 
     7    5    7 ar 
     8    5    8 1  
     9    8    9 1  
    10    9   10 ar 
    11    9   11 ar 
    12    9   12 ar 
    13   13   14 1  
    14   14   15 1  
    15   15   16 1  
    16   15   17 1  
    17   16   20 1  
    18   17   18 1  
    19   17   19 1  
    20   19   20 1  
    21   20   21 1  
    22   21   22 am 
    23   21   29 1  
    24   22   23 2  
    25   22   24 am 
    26   24   25 am 
    27   25   26 2  
    28   25   27 1  
    29   27   28 1  
    30   27   29 2  
    31   14   30 1  
    32   14   31 1  
    33   15   32 1  
    34   17   33 1  
    35   18   34 1  
    36   19   35 1  
    37   19   36 1  
    38   20   37 1  
    39   24   38 1  
    40   28   39 1  
    41   28   40 1  
    42   28   41 1  
    43   29   42 1  
@<TRIPOS>SUBSTRUCTURE
     1 TTP         1

