### 
### Created by X-TOOL on Wed Dec 13 14:19:07 2017
### 

@<TRIPOS>MOLECULE
5hbn_ligand
   30    29     1     0     0
SMALL
GAST_HUCK


@<TRIPOS>ATOM
      1 P          22.1890   27.4970    8.3830 P.3       1 RPI         0.1447
      2 N          25.4120   26.2620   15.2920 N.4       1 RPI         0.2327
      3 CA         25.4230   27.4320   14.4660 C.3       1 RPI         0.0285
      4 CB         24.6160   27.1440   13.2220 C.3       1 RPI         0.0064
      5 CG         25.4000   26.2780   12.2680 C.3       1 RPI        -0.0047
      6 CD         25.8490   27.0790   11.0740 C.3       1 RPI         0.0885
      7 NE         24.7320   27.2440   10.2090 N.pl3     1 RPI        -0.2456
      8 CZ         24.8900   27.2340    8.8160 C.cat     1 RPI         0.3140
      9 NH1        26.0810   27.0770    8.3230 N.pl3     1 RPI        -0.2581
     10 NH2        23.7730   27.3680    7.9360 N.am      1 RPI        -0.2312
     11 O1P        21.5470   26.1600    8.0690 O.co2     1 RPI        -0.5496
     12 O2P        21.6080   28.5570    7.4810 O.co2     1 RPI        -0.5496
     13 O3P        22.0190   27.8420    9.8330 O.co2     1 RPI        -0.5496
     14 C          24.8510   28.6530   15.1620 C.2       1 RPI         0.0844
     15 O          23.7520   29.1680   14.7890 O.co2     1 RPI        -0.5643
     16 OXT        25.4980   29.1780   16.1050 O.co2     1 RPI        -0.5643
     17 H1         25.8016   25.4858   14.7803 H         1 RPI         0.2010
     18 H2         24.4637   26.0472   15.5577 H         1 RPI         0.2010
     19 H3         25.9630   26.4295   16.1192 H         1 RPI         0.2010
     20 H4         26.4631   27.6502   14.1821 H         1 RPI         0.1024
     21 H5         24.3658   28.0933   12.7258 H         1 RPI         0.0340
     22 H6         23.6896   26.6228   13.5049 H         1 RPI         0.0340
     23 H7         24.7644   25.4471   11.9279 H         1 RPI         0.0311
     24 H8         26.2828   25.8759   12.7866 H         1 RPI         0.0311
     25 H9         26.6531   26.5445   10.5471 H         1 RPI         0.0797
     26 H10        26.2159   28.0630   11.4013 H         1 RPI         0.0797
     27 H11        23.7929   27.3728   10.6121 H         1 RPI         0.3219
     28 H12        26.2186   27.0667    7.3023 H         1 RPI         0.3194
     29 H13        26.8881   26.9627    8.9527 H         1 RPI         0.3194
     30 H14        23.9691   27.3853    6.9556 H         1 RPI         0.1619
@<TRIPOS>BOND
     1   10    1 am 
     2    1   11 ar 
     3    1   12 ar 
     4    1   13 ar 
     5    3    2 1  
     6    4    3 1  
     7    3   14 1  
     8    5    4 1  
     9    6    5 1  
    10    7    6 1  
    11    8    7 ar 
    12    8    9 ar 
    13    8   10 ar 
    14   14   15 ar 
    15   14   16 ar 
    16    2   17 1  
    17    2   18 1  
    18    2   19 1  
    19    3   20 1  
    20    4   21 1  
    21    4   22 1  
    22    5   23 1  
    23    5   24 1  
    24    6   25 1  
    25    6   26 1  
    26    7   27 1  
    27    9   28 1  
    28    9   29 1  
    29   10   30 1  
@<TRIPOS>SUBSTRUCTURE
     1 RPI         1

