### 
### Created by X-TOOL on Fri Nov 18 17:16:22 2016
### 

@<TRIPOS>MOLECULE
4e67_ligand
  110   112     1     0     0
SMALL
GAST_HUCK


@<TRIPOS>ATOM
      1 C1        -10.6410   26.7510   -7.1080 C.2       1 HCI         0.1827
      2 O1        -11.0560   27.0370   -8.2330 O.2       1 HCI        -0.3966
      3 C2        -11.4390   25.8070   -6.2090 C.3       1 HCI         0.0472
      4 C3        -12.5560   25.1060   -6.9900 C.3       1 HCI        -0.0022
      5 C1'       -13.5770   24.4320   -6.1120 C.ar      1 HCI        -0.0408
      6 C2'       -14.8590   24.9530   -5.9900 C.ar      1 HCI        -0.0602
      7 C3'       -15.8040   24.3360   -5.1790 C.ar      1 HCI        -0.0686
      8 C4'       -15.4730   23.1750   -4.4840 C.ar      1 HCI        -0.0687
      9 C5'       -14.1940   22.6420   -4.5980 C.ar      1 HCI        -0.0686
     10 C6'       -13.2540   23.2720   -5.4090 C.ar      1 HCI        -0.0602
     11 N          -9.4850   27.2370   -6.6100 N.am      1 HCI        -0.2516
     12 CA         -8.6210   28.1920   -7.3230 C.3       1 HCI         0.1337
     13 C          -8.3150   27.7750   -8.7640 C.2       1 HCI         0.2041
     14 O          -8.1120   28.6370   -9.6200 O.2       1 HCI        -0.3944
     15 CB         -7.3500   28.2180   -6.4680 C.3       1 HCI        -0.0104
     16 CG         -7.8550   27.9550   -5.0810 C.3       1 HCI        -0.0281
     17 CD         -8.9720   26.9470   -5.2560 C.3       1 HCI         0.0369
     18 N          -8.2720   26.4680   -9.0200 N.am      1 HCI        -0.2637
     19 CA         -8.3690   25.9510  -10.3860 C.3       1 HCI         0.1312
     20 C          -9.0010   24.5620  -10.4590 C.2       1 HCI         0.2040
     21 O          -8.9920   23.8060   -9.4890 O.2       1 HCI        -0.3944
     22 CB         -7.0400   26.0190  -11.1470 C.3       1 HCI        -0.0101
     23 CG         -5.8030   25.2400  -10.7250 C.3       1 HCI        -0.0425
     24 CD1        -5.0210   24.9620  -11.9880 C.3       1 HCI        -0.0625
     25 CD2        -4.9560   26.0460   -9.7480 C.3       1 HCI        -0.0625
     26 N          -9.5580   24.2540  -11.6240 N.am      1 HCI        -0.2625
     27 CA        -10.4250   23.1010  -11.8150 C.3       1 HCI         0.1369
     28 C         -10.3760   22.6820  -13.2790 C.2       1 HCI         0.2054
     29 O          -9.8240   23.3920  -14.1160 O.2       1 HCI        -0.3942
     30 CB        -11.8670   23.4480  -11.4070 C.3       1 HCI         0.0145
     31 CG        -12.3730   24.7240  -12.0090 C.2       1 HCI        -0.0027
     32 ND1       -12.8320   24.8040  -13.3080 N.2       1 HCI        -0.3252
     33 CD2       -12.4820   25.9720  -11.4960 C.2       1 HCI         0.0291
     34 CE1       -13.1970   26.0460  -13.5690 C.2       1 HCI         0.0907
     35 NE2       -12.9980   26.7750  -12.4850 N.pl3     1 HCI        -0.2752
     36 N         -10.9500   21.5210  -13.5790 N.am      1 HCI        -0.2615
     37 CA        -11.0550   21.0490  -14.9530 C.3       1 HCI         0.1539
     38 C         -12.0610   21.9070  -15.7340 C.2       1 HCI         0.2063
     39 O         -12.6750   22.8210  -15.1770 O.2       1 HCI        -0.3943
     40 CB        -11.4540   19.5730  -14.9710 C.3       1 HCI         0.0843
     41 OG        -12.6570   19.3690  -14.2430 O.3       1 HCI        -0.3903
     42 N         -12.2180   21.6070  -17.0190 N.am      1 HCI        -0.2610
     43 CA        -13.0820   22.3760  -17.9180 C.3       1 HCI         0.1612
     44 CB        -13.0110   21.7590  -19.3170 C.3       1 HCI         0.1262
     45 CG2       -13.8110   22.5620  -20.3420 C.3       1 HCI        -0.0298
     46 OG1       -11.6440   21.7380  -19.7270 O.3       1 HCI        -0.2685
     47 P         -10.7750   20.3890  -19.8850 P.3       1 HCI         0.2014
     48 O1P       -11.5000   19.6020  -20.9460 O.co2     1 HCI        -0.5537
     49 O2P       -10.7690   19.7540  -18.5080 O.co2     1 HCI        -0.5537
     50 O3P        -9.4250   20.8890  -20.3350 O.co2     1 HCI        -0.5537
     51 C         -14.5040   22.4860  -17.4240 C.2       1 HCI         0.2068
     52 O         -15.1310   21.4810  -17.0670 O.2       1 HCI        -0.3943
     53 N         -15.0140   23.7170  -17.3990 N.am      1 HCI        -0.2639
     54 CA        -16.3760   24.0050  -16.9370 C.3       1 HCI         0.1279
     55 C         -17.4110   23.4850  -17.9210 C.2       1 HCI         0.1989
     56 O         -17.1120   23.2970  -19.0950 O.2       1 HCI        -0.3947
     57 CB        -16.5650   25.5110  -16.7150 C.3       1 HCI        -0.0244
     58 N         -18.5740   23.1270  -17.5830 N.am      1 HCI        -0.2990
     59 H1        -11.8854   26.3865   -5.3875 H         1 HCI         0.0525
     60 H2        -10.7600   25.0471   -5.7949 H         1 HCI         0.0525
     61 H3        -12.1003   24.3447   -7.6401 H         1 HCI         0.0451
     62 H4        -13.0708   25.8559   -7.6086 H         1 HCI         0.0451
     63 H5        -15.1256   25.8519   -6.5341 H         1 HCI         0.0557
     64 H6        -16.7983   24.7580   -5.0873 H         1 HCI         0.0599
     65 H7        -16.2106   22.6885   -3.8560 H         1 HCI         0.0559
     66 H8        -13.9299   21.7400   -4.0579 H         1 HCI         0.0599
     67 H9        -12.2572   22.8549   -5.4951 H         1 HCI         0.0557
     68 H10        -9.0924   29.1857   -7.3410 H         1 HCI         0.0802
     69 H11        -6.8565   29.1993   -6.5271 H         1 HCI         0.0313
     70 H12        -6.6466   27.4341   -6.7854 H         1 HCI         0.0313
     71 H13        -8.2373   28.8809   -4.6265 H         1 HCI         0.0287
     72 H14        -7.0550   27.5401   -4.4503 H         1 HCI         0.0287
     73 H15        -8.5875   25.9184   -5.1926 H         1 HCI         0.0524
     74 H16        -9.7560   27.0927   -4.4983 H         1 HCI         0.0524
     75 H17        -8.1711   25.8250   -8.2608 H         1 HCI         0.1883
     76 H18        -9.0576   26.6264  -10.9148 H         1 HCI         0.0800
     77 H19        -6.7451   27.0787  -11.1479 H         1 HCI         0.0315
     78 H20        -7.2630   25.6995  -12.1757 H         1 HCI         0.0315
     79 H21        -6.1005   24.2939  -10.2493 H         1 HCI         0.0298
     80 H22        -4.1106   24.3972  -11.7387 H         1 HCI         0.0232
     81 H23        -4.7431   25.9138  -12.4642 H         1 HCI         0.0232
     82 H24        -5.6400   24.3725  -12.6803 H         1 HCI         0.0232
     83 H25        -5.5363   26.2412   -8.8342 H         1 HCI         0.0232
     84 H26        -4.6704   27.0015  -10.2120 H         1 HCI         0.0232
     85 H27        -4.0499   25.4771   -9.4924 H         1 HCI         0.0232
     86 H28        -9.3725   24.8440  -12.4098 H         1 HCI         0.1885
     87 H29       -10.0666   22.2706  -11.1889 H         1 HCI         0.0817
     88 H30       -11.9050   23.5418  -10.3117 H         1 HCI         0.0420
     89 H31       -12.5257   22.6275  -11.7278 H         1 HCI         0.0420
     90 H32       -12.2113   26.2819  -10.4877 H         1 HCI         0.0729
     91 H33       -13.5943   26.4078  -14.5162 H         1 HCI         0.1199
     92 H34       -13.1972   27.7816  -12.3957 H         1 HCI         0.2361
     93 H35       -11.3198   20.9563  -12.8412 H         1 HCI         0.1884
     94 H36       -10.0703   21.1475  -15.4333 H         1 HCI         0.0823
     95 H37       -10.6504   18.9761  -14.5150 H         1 HCI         0.0606
     96 H38       -11.6034   19.2520  -16.0124 H         1 HCI         0.0606
     97 H39       -13.3542   19.8809  -14.6358 H         1 HCI         0.2097
     98 H40       -11.7238   20.8204  -17.3892 H         1 HCI         0.1884
     99 H41       -12.6794   23.3980  -17.9766 H         1 HCI         0.0830
    100 H42       -13.4049   20.7327  -19.2781 H         1 HCI         0.0695
    101 H43       -13.7301   22.0815  -21.3282 H         1 HCI         0.0260
    102 H44       -13.4115   23.5853  -20.3988 H         1 HCI         0.0260
    103 H45       -14.8672   22.5971  -20.0369 H         1 HCI         0.0260
    104 H46       -14.4432   24.4775  -17.7087 H         1 HCI         0.1883
    105 H47       -16.5271   23.4921  -15.9757 H         1 HCI         0.0797
    106 H48       -17.5912   25.7047  -16.3694 H         1 HCI         0.0277
    107 H49       -16.3893   26.0459  -17.6600 H         1 HCI         0.0277
    108 H50       -15.8502   25.8624  -15.9564 H         1 HCI         0.0277
    109 H51       -19.2147   22.7923  -18.2740 H         1 HCI         0.1815
    110 H52       -18.8542   23.1783  -16.6244 H         1 HCI         0.1815
@<TRIPOS>BOND
     1    1    2 2  
     2    1    3 1  
     3    1   11 am 
     4    3    4 1  
     5    4    5 1  
     6    5    6 ar 
     7    5   10 ar 
     8    6    7 ar 
     9    7    8 ar 
    10    8    9 ar 
    11    9   10 ar 
    12   11   12 1  
    13   11   17 1  
    14   12   13 1  
    15   12   15 1  
    16   13   14 2  
    17   13   18 am 
    18   15   16 1  
    19   16   17 1  
    20   18   19 1  
    21   19   20 1  
    22   19   22 1  
    23   20   21 2  
    24   20   26 am 
    25   22   23 1  
    26   23   24 1  
    27   23   25 1  
    28   26   27 1  
    29   27   28 1  
    30   27   30 1  
    31   28   29 2  
    32   28   36 am 
    33   30   31 1  
    34   31   32 1  
    35   31   33 2  
    36   32   34 2  
    37   33   35 1  
    38   34   35 1  
    39   36   37 1  
    40   37   38 1  
    41   37   40 1  
    42   38   39 2  
    43   38   42 am 
    44   40   41 1  
    45   42   43 1  
    46   43   44 1  
    47   43   51 1  
    48   44   45 1  
    49   44   46 1  
    50   46   47 1  
    51   47   48 ar 
    52   47   49 ar 
    53   47   50 ar 
    54   51   52 2  
    55   51   53 am 
    56   53   54 1  
    57   54   55 1  
    58   54   57 1  
    59   55   56 2  
    60   55   58 am 
    61    3   59 1  
    62    3   60 1  
    63    4   61 1  
    64    4   62 1  
    65    6   63 1  
    66    7   64 1  
    67    8   65 1  
    68    9   66 1  
    69   10   67 1  
    70   12   68 1  
    71   15   69 1  
    72   15   70 1  
    73   16   71 1  
    74   16   72 1  
    75   17   73 1  
    76   17   74 1  
    77   18   75 1  
    78   19   76 1  
    79   22   77 1  
    80   22   78 1  
    81   23   79 1  
    82   24   80 1  
    83   24   81 1  
    84   24   82 1  
    85   25   83 1  
    86   25   84 1  
    87   25   85 1  
    88   26   86 1  
    89   27   87 1  
    90   30   88 1  
    91   30   89 1  
    92   33   90 1  
    93   34   91 1  
    94   35   92 1  
    95   36   93 1  
    96   37   94 1  
    97   40   95 1  
    98   40   96 1  
    99   41   97 1  
   100   42   98 1  
   101   43   99 1  
   102   44  100 1  
   103   45  101 1  
   104   45  102 1  
   105   45  103 1  
   106   53  104 1  
   107   54  105 1  
   108   57  106 1  
   109   57  107 1  
   110   57  108 1  
   111   58  109 1  
   112   58  110 1  
@<TRIPOS>SUBSTRUCTURE
     1 HCI         1

