### 
### Created by X-TOOL on Wed Dec 13 14:19:22 2017
### 

@<TRIPOS>MOLECULE
5hva_ligand
   40    41     1     0     0
SMALL
GAST_HUCK


@<TRIPOS>ATOM
      1 O4         30.7540 -182.6880   31.8510 O.2       1 DUP        -0.4124
      2 C4         30.2300 -183.0560   30.8320 C.2       1 DUP         0.1822
      3 C5         30.9730 -183.4070   29.7500 C.2       1 DUP         0.0062
      4 C6         30.3620 -183.8130   28.5980 C.2       1 DUP         0.0590
      5 N3         28.9060 -183.1260   30.7480 N.am      1 DUP        -0.1865
      6 C2         28.2980 -183.5380   29.6110 C.2       1 DUP         0.3327
      7 O2         27.1140 -183.5980   29.5750 O.2       1 DUP        -0.3815
      8 N1         29.0340 -183.8670   28.5240 N.am      1 DUP        -0.1618
      9 C1'        28.3950 -184.3480   27.3120 C.3       1 DUP         0.1800
     10 C2'        27.7850 -183.4260   26.5760 C.3       1 DUP         0.0316
     11 C3'        28.0400 -183.8600   25.0370 C.3       1 DUP         0.0890
     12 O3'        27.1870 -184.9460   24.7050 O.3       1 DUP        -0.3889
     13 O4'        29.5310 -184.9580   26.3820 O.3       1 DUP        -0.3386
     14 C4'        29.3400 -184.2770   25.0300 C.3       1 DUP         0.1166
     15 C5'        30.2630 -183.0720   24.9700 C.3       1 DUP         0.1132
     16 O5'        31.5010 -183.4220   25.5040 O.3       1 DUP        -0.2529
     17 PA         32.8630 -182.9530   24.7050 P.3       1 DUP         0.2362
     18 O1A        32.8550 -181.4550   24.5020 O.co2     1 DUP        -0.6036
     19 O2A        34.0550 -183.4010   25.5150 O.co2     1 DUP        -0.6036
     20 N3A        32.9250 -183.8460   23.2540 N.am      1 DUP        -0.1581
     21 PB         32.4010 -183.3110   21.7270 P.3       1 DUP         0.2871
     22 O1B        31.5890 -184.4140   21.0880 O.co2     1 DUP        -0.5685
     23 O2B        31.5540 -182.0640   21.7970 O.co2     1 DUP        -0.5685
     24 O3B        33.7550 -183.0420   20.8410 O.3       1 DUP        -0.1659
     25 PG         34.5650 -181.6120   20.8830 P.3       1 DUP         0.2047
     26 O2G        34.2920 -180.8800   19.5880 O.co2     1 DUP        -0.5893
     27 O1G        36.0510 -181.8350   21.0530 O.co2     1 DUP        -0.5893
     28 O3G        34.0070 -180.7620   21.9910 O.co2     1 DUP        -0.5893
     29 H1         32.0600 -183.3644   29.8015 H         1 DUP         0.0258
     30 H2         30.9644 -184.0940   27.7354 H         1 DUP         0.1178
     31 H3         28.3491 -182.8700   31.5382 H         1 DUP         0.2259
     32 H4         27.6645 -185.1230   27.5871 H         1 DUP         0.0970
     33 H5         28.2149 -182.4325   26.7711 H         1 DUP         0.0345
     34 H6         26.7075 -183.4092   26.7968 H         1 DUP         0.0345
     35 H7         27.8801 -183.0195   24.3457 H         1 DUP         0.0622
     36 H8         27.3369 -185.2004   23.8020 H         1 DUP         0.2099
     37 H9         29.5394 -184.9637   24.1942 H         1 DUP         0.0650
     38 H10        29.8299 -182.2462   25.5535 H         1 DUP         0.0651
     39 H11        30.3887 -182.7555   23.9241 H         1 DUP         0.0651
     40 H12        33.3046 -184.7697   23.3055 H         1 DUP         0.2175
@<TRIPOS>BOND
     1    1    2 2  
     2    2    3 1  
     3    2    5 am 
     4    3    4 2  
     5    4    8 1  
     6    5    6 am 
     7    6    7 2  
     8    6    8 am 
     9    8    9 1  
    10    9   10 1  
    11    9   13 1  
    12   10   11 1  
    13   11   12 1  
    14   11   14 1  
    15   13   14 1  
    16   14   15 1  
    17   15   16 1  
    18   16   17 1  
    19   17   18 ar 
    20   17   19 ar 
    21   17   20 am 
    22   20   21 1  
    23   21   22 ar 
    24   21   23 ar 
    25   21   24 1  
    26   24   25 1  
    27   25   26 ar 
    28   25   27 ar 
    29   25   28 ar 
    30    3   29 1  
    31    4   30 1  
    32    5   31 1  
    33    9   32 1  
    34   10   33 1  
    35   10   34 1  
    36   11   35 1  
    37   12   36 1  
    38   14   37 1  
    39   15   38 1  
    40   15   39 1  
    41   20   40 1  
@<TRIPOS>SUBSTRUCTURE
     1 DUP         1

