### 
### Created by X-TOOL on Fri Nov 18 17:31:24 2016
### 

@<TRIPOS>MOLECULE
4ko8_ligand
   44    46     1     0     0
SMALL
GAST_HUCK


@<TRIPOS>ATOM
      1 PG         18.1480   52.8820  -12.0820 P.3       1 AGS         0.2197
      2 S1G        16.2460   52.5280  -12.8350 S.3       1 AGS        -0.0461
      3 O2G        17.9520   53.2240  -10.6270 O.co2     1 AGS        -0.6077
      4 O3G        18.8630   53.8690  -12.9660 O.co2     1 AGS        -0.6077
      5 PB         20.4050   51.1600  -11.5270 P.3       1 AGS         0.3347
      6 O1B        20.4890   51.7820  -10.1560 O.co2     1 AGS        -0.6076
      7 O2B        21.4890   51.3770  -12.5530 O.co2     1 AGS        -0.6076
      8 O3B        18.9820   51.5070  -12.2120 O.3       1 AGS        -0.1434
      9 PA         20.4380   48.7310  -10.0640 P.3       1 AGS         0.2978
     10 O1A        21.8570   49.0370   -9.6660 O.co2     1 AGS        -0.6127
     11 O2A        19.3070   48.9780   -9.1050 O.co2     1 AGS        -0.6127
     12 O3A        20.1600   49.5780  -11.3980 O.3       1 AGS        -0.1263
     13 O5'        20.3380   47.2570  -10.6940 O.3       1 AGS        -0.2476
     14 C5'        19.1970   46.4290  -10.4830 C.3       1 AGS         0.1128
     15 C4'        19.6580   44.9890  -10.3300 C.3       1 AGS         0.1189
     16 O4'        20.1480   44.4870  -11.5840 O.3       1 AGS        -0.3364
     17 C3'        20.8100   44.8580   -9.3460 C.3       1 AGS         0.1149
     18 O3'        20.3800   44.6290   -8.0000 O.3       1 AGS        -0.3864
     19 C2'        21.5770   43.6800   -9.8900 C.3       1 AGS         0.1385
     20 O2'        20.9840   42.4750   -9.3980 O.3       1 AGS        -0.3836
     21 C1'        21.3670   43.7530  -11.3970 C.3       1 AGS         0.2010
     22 N9         22.5230   44.4400  -12.0360 N.pl3     1 AGS        -0.1919
     23 C8         22.4700   45.6240  -12.6730 C.2       1 AGS         0.1123
     24 N7         23.6860   45.9880  -13.1410 N.2       1 AGS        -0.2958
     25 C5         24.5640   45.0330  -12.7970 C.ar      1 AGS         0.1045
     26 C6         26.0220   44.8050  -12.9840 C.ar      1 AGS         0.1298
     27 N6         26.7870   45.7030  -13.6470 N.pl3     1 AGS        -0.3152
     28 N1         26.5550   43.6720  -12.4710 N.ar      1 AGS        -0.2698
     29 C2         25.7940   42.7710  -11.8100 C.ar      1 AGS         0.0533
     30 N3         24.4680   42.9180  -11.6070 N.ar      1 AGS        -0.2714
     31 C4         23.7970   44.0070  -12.0700 C.ar      1 AGS         0.1613
     32 H1         16.3115   52.2923  -13.8129 H         1 AGS         0.1255
     33 H2         18.5172   46.5099  -11.3440 H         1 AGS         0.0648
     34 H3         18.6724   46.7481   -9.5703 H         1 AGS         0.0648
     35 H4         18.8087   44.3798   -9.9872 H         1 AGS         0.0651
     36 H5         21.4311   45.7657   -9.3644 H         1 AGS         0.0648
     37 H6         19.8770   43.8240   -7.9621 H         1 AGS         0.2100
     38 H7         22.6432   43.7293   -9.6239 H         1 AGS         0.0676
     39 H8         21.0186   42.4710   -8.4486 H         1 AGS         0.2101
     40 H9         21.2674   42.7424  -11.8197 H         1 AGS         0.0996
     41 H10        21.5633   46.2144  -12.7962 H         1 AGS         0.1349
     42 H11        27.7952   45.5307  -13.7682 H         1 AGS         0.1820
     43 H12        26.3611   46.5588  -14.0305 H         1 AGS         0.1820
     44 H13        26.2758   41.8810  -11.4215 H         1 AGS         0.0996
@<TRIPOS>BOND
     1    1    2 1  
     2    1    3 ar 
     3    1    4 ar 
     4    8    1 1  
     5    5    6 ar 
     6    5    7 ar 
     7    5    8 1  
     8   12    5 1  
     9    9   10 ar 
    10    9   11 ar 
    11    9   12 1  
    12    9   13 1  
    13   13   14 1  
    14   14   15 1  
    15   15   16 1  
    16   15   17 1  
    17   16   21 1  
    18   17   18 1  
    19   17   19 1  
    20   19   20 1  
    21   19   21 1  
    22   21   22 1  
    23   22   23 1  
    24   22   31 1  
    25   23   24 2  
    26   24   25 1  
    27   25   26 ar 
    28   25   31 ar 
    29   26   27 1  
    30   26   28 ar 
    31   28   29 ar 
    32   29   30 ar 
    33   30   31 ar 
    34    2   32 1  
    35   14   33 1  
    36   14   34 1  
    37   15   35 1  
    38   17   36 1  
    39   18   37 1  
    40   19   38 1  
    41   20   39 1  
    42   21   40 1  
    43   23   41 1  
    44   27   42 1  
    45   27   43 1  
    46   29   44 1  
@<TRIPOS>SUBSTRUCTURE
     1 AGS         1

