### 
### Created by X-TOOL on Fri Nov 18 15:21:47 2016
### 

@<TRIPOS>MOLECULE
2r1y_ligand
   28    28     1     0     0
SMALL
GAST_HUCK


@<TRIPOS>ATOM
      1 C1         31.9460   -0.7020    0.3070 C.2       1 KDO         0.0637
      2 O1A        31.7980    0.5390    0.3810 O.co2     1 KDO        -0.5663
      3 O1B        32.9890   -1.3070   -0.0320 O.co2     1 KDO        -0.5663
      4 C2         30.6940   -1.5530    0.5950 C.3       1 KDO         0.1137
      5 C3         29.7720   -1.3750   -0.6290 C.3       1 KDO         0.0140
      6 C4         28.5930   -2.3400   -0.5460 C.3       1 KDO         0.0875
      7 O4         27.8430   -2.2760   -1.7870 O.3       1 KDO        -0.3890
      8 C5         29.0710   -3.7740   -0.2970 C.3       1 KDO         0.1099
      9 O5         29.9000   -4.1850   -1.3900 O.3       1 KDO        -0.3866
     10 C6         29.9330   -3.7940    0.9700 C.3       1 KDO         0.1173
     11 O6         31.0760   -2.9430    0.7920 O.3       1 KDO        -0.3540
     12 C7         30.4880   -5.1760    1.3340 C.3       1 KDO         0.1069
     13 O7         29.3970   -6.0600    1.4880 O.3       1 KDO        -0.3869
     14 C8         31.2860   -5.1370    2.6460 C.3       1 KDO         0.0727
     15 O8         30.4120   -4.8610    3.7470 O.3       1 KDO        -0.3924
     16 H1         30.1862   -1.1889    1.5003 H         1 KDO         0.0767
     17 H2         30.3434   -1.5778   -1.5468 H         1 KDO         0.0334
     18 H3         29.3949   -0.3420   -0.6526 H         1 KDO         0.0334
     19 H4         27.9408   -2.0358    0.2859 H         1 KDO         0.0622
     20 H5         27.1069   -2.8749   -1.7421 H         1 KDO         0.2099
     21 H6         28.2100   -4.4502   -0.1898 H         1 KDO         0.0646
     22 H7         30.6486   -3.6036   -1.4543 H         1 KDO         0.2100
     23 H8         29.3209   -3.4254    1.8063 H         1 KDO         0.0651
     24 H9         31.1431   -5.5293    0.5241 H         1 KDO         0.0643
     25 H10        28.8286   -5.7423    2.1797 H         1 KDO         0.2100
     26 H11        32.0512   -4.3493    2.5829 H         1 KDO         0.0584
     27 H12        31.7737   -6.1102    2.8041 H         1 KDO         0.0584
     28 H13        29.7514   -5.5414    3.8038 H         1 KDO         0.2095
@<TRIPOS>BOND
     1    1    2 ar 
     2    1    3 ar 
     3    1    4 1  
     4    4    5 1  
     5    4   11 1  
     6    5    6 1  
     7    6    7 1  
     8    6    8 1  
     9    8    9 1  
    10    8   10 1  
    11   10   11 1  
    12   10   12 1  
    13   12   13 1  
    14   12   14 1  
    15   14   15 1  
    16    4   16 1  
    17    5   17 1  
    18    5   18 1  
    19    6   19 1  
    20    7   20 1  
    21    8   21 1  
    22    9   22 1  
    23   10   23 1  
    24   12   24 1  
    25   13   25 1  
    26   14   26 1  
    27   14   27 1  
    28   15   28 1  
@<TRIPOS>SUBSTRUCTURE
     1 KDO         1

