3ng4_ligand

Created by X-TOOL on Fri Nov 18 16:07:38 2016
 14 13  0  0  0  0  0  0  0  0999 V2000
  -35.5970  -22.5230   -9.5730  O 0  0  0  1  0  1
  -37.1680  -23.6640   -8.7050  O 0  0  0  1  0  1
  -35.9920  -23.4950   -8.9740  C 0  5  0  1  0  3
  -34.8980  -24.5110   -8.6290  C 0  0  0  2  0  4
  -33.8880  -23.9690   -7.8290  O 0  0  0  2  0  2
  -35.4730  -25.8430   -8.2850  C 0  0  0  2  0  4
  -35.6340  -26.4000   -9.5480  O 0  0  0  2  0  2
  -34.5910  -26.7460   -7.4630  C 0  5  0  1  0  3
  -33.9400  -27.6020   -8.0250  O 0  0  0  1  0  1
  -34.5540  -26.5840   -6.2510  O 0  0  0  1  0  1
  -34.3840  -24.6980   -9.5833  H 0  0  0  1  0  1
  -33.2382  -24.6373   -7.6452  H 0  0  0  1  0  1
  -36.4358  -25.7206   -7.7674  H 0  0  0  1  0  1
  -34.7894  -26.4522   -9.9799  H 0  0  0  1  0  1
  1  3  2  0  0  2
  3  2  2  0  0  2
  3  4  1  0  0  2
  4  5  1  0  0  2
  4  6  1  0  0  2
  6  7  1  0  0  2
  6  8  1  0  0  2
  8  9  2  0  0  2
  8 10  2  0  0  2
  4 11  1  0  0  2
  5 12  1  0  0  2
  6 13  1  0  0  2
  7 14  1  0  0  2
M  END
> <MOLECULAR_FORMULA>
C4H4O6

> <MOLECULAR_WEIGHT>
148.0

> <NUM_HB_ATOMS>
6  

> <NUM_ROTOR>
1  

> <XLOGP2>
-2.68

$$$$
