### 
### Created by X-TOOL on Fri Nov 18 13:06:48 2016
### 

@<TRIPOS>MOLECULE
1ec2_ligand
  108   111     1     0     0
SMALL
GAST_HUCK


@<TRIPOS>ATOM
      1 C01         9.8350   24.3970    2.0850 C.ar      1 BEJ        -0.0155
      2 C02         9.0400   25.5490    1.8790 C.ar      1 BEJ        -0.0558
      3 C03         7.6350   25.5010    2.1390 C.ar      1 BEJ        -0.0583
      4 C04         7.0070   24.2790    2.6150 C.ar      1 BEJ        -0.0170
      5 C05         7.8510   23.1160    2.8180 C.ar      1 BEJ        -0.0583
      6 C06         9.2480   23.1570    2.5610 C.ar      1 BEJ        -0.0558
      7 C07        16.2970   22.4930    8.5540 C.ar      1 BEJ        -0.0155
      8 C08        15.4530   21.6030    9.3310 C.ar      1 BEJ        -0.0558
      9 C09        16.0100   20.4270    9.9300 C.ar      1 BEJ        -0.0583
     10 C10        17.4170   20.1230    9.7610 C.ar      1 BEJ        -0.0170
     11 C11        18.2510   21.0280    8.9770 C.ar      1 BEJ        -0.0583
     12 C12        17.6990   22.2110    8.3720 C.ar      1 BEJ        -0.0558
     13 C13        15.6680   23.7080    7.9250 C.3       1 BEJ         0.0860
     14 O14        14.6010   23.3140    7.0070 O.3       1 BEJ        -0.3407
     15 C15        15.0840   22.8600    5.7300 C.3       1 BEJ         0.1780
     16 C16        14.1220   23.2450    4.6160 C.3       1 BEJ         0.1289
     17 C17        13.7150   24.6950    4.6870 C.3       1 BEJ         0.1289
     18 C18        12.3440   24.9260    4.0130 C.3       1 BEJ         0.1780
     19 C19        11.2200   24.8260    5.0650 C.2       1 BEJ         0.2104
     20 O20        10.9830   23.7560    5.6420 O.2       1 BEJ        -0.3940
     21 N21        10.4910   25.9920    5.3170 N.am      1 BEJ        -0.2632
     22 C22         9.3480   26.1620    6.2850 C.3       1 BEJ         0.1331
     23 C23         9.8180   26.8320    7.6460 C.3       1 BEJ        -0.0063
     24 C24        10.9390   26.0460    8.3940 C.3       1 BEJ        -0.0584
     25 C25         8.6680   27.1000    8.6580 C.3       1 BEJ        -0.0584
     26 C26         8.6030   27.1150    5.5900 C.2       1 BEJ         0.2017
     27 O27         8.6960   28.1420    5.0140 O.2       1 BEJ        -0.3945
     28 N28         6.9870   26.6440    5.5530 N.am      1 BEJ        -0.2881
     29 C29         5.9540   27.4430    4.8940 C.3       1 BEJ         0.0196
     30 O30        12.0750   23.9730    2.9180 O.3       1 BEJ        -0.3407
     31 C31        11.3040   24.4670    1.8160 C.3       1 BEJ         0.0860
     32 O32        14.8340   25.4480    4.2200 O.3       1 BEJ        -0.3840
     33 O33        14.6510   22.9140    3.3160 O.3       1 BEJ        -0.3840
     34 C34        15.2240   21.3620    5.6540 C.2       1 BEJ         0.2104
     35 O35        14.2940   20.6580    6.0570 O.2       1 BEJ        -0.3940
     36 N36        16.4240   20.8990    5.1360 N.am      1 BEJ        -0.2632
     37 C37        16.7750   19.4880    4.9810 C.3       1 BEJ         0.1331
     38 C38        16.8160   19.0540    3.4640 C.3       1 BEJ        -0.0063
     39 C39        17.2550   17.5640    3.2430 C.3       1 BEJ        -0.0584
     40 C40        15.4900   19.3210    2.7410 C.3       1 BEJ        -0.0584
     41 C41        18.1920   19.3440    5.5570 C.2       1 BEJ         0.2017
     42 O42        19.1180   20.0830    5.1640 O.2       1 BEJ        -0.3945
     43 N43        18.3310   18.3470    6.5160 N.am      1 BEJ        -0.2881
     44 C44        19.6240   18.1270    7.1140 C.3       1 BEJ         0.0196
     45 C45         5.5060   24.2090    2.8920 C.ar      1 BEJ         0.0053
     46 C46         4.9050   23.4540    3.9650 C.ar      1 BEJ        -0.0366
     47 C47         3.4730   23.4390    4.1530 C.ar      1 BEJ        -0.0349
     48 C48         2.6850   24.2050    3.2270 C.ar      1 BEJ         0.0098
     49 N49         3.2170   24.9420    2.1850 N.ar      1 BEJ        -0.2976
     50 C50         4.5770   24.9320    2.0390 C.ar      1 BEJ         0.0170
     51 C51        18.0040   18.8830   10.3930 C.ar      1 BEJ         0.0053
     52 C52        17.2650   17.6460   10.5600 C.ar      1 BEJ        -0.0366
     53 C53        17.8750   16.4930   11.1740 C.ar      1 BEJ        -0.0349
     54 C54        19.2290   16.6340   11.6020 C.ar      1 BEJ         0.0098
     55 N55        19.9660   17.8000   11.4570 N.ar      1 BEJ        -0.2976
     56 C56        19.3620   18.8760   10.8730 C.ar      1 BEJ         0.0170
     57 H1          9.4955   26.4666    1.5246 H         1 BEJ         0.0563
     58 H2          7.0305   26.3865    1.9793 H         1 BEJ         0.0617
     59 H3          7.4052   22.1943    3.1741 H         1 BEJ         0.0617
     60 H4          9.8641   22.2789    2.7174 H         1 BEJ         0.0563
     61 H5         14.4004   21.8287    9.4579 H         1 BEJ         0.0563
     62 H6         15.3786   19.7639   10.5102 H         1 BEJ         0.0617
     63 H7         19.3040   20.8053    8.8482 H         1 BEJ         0.0617
     64 H8         18.3255   22.8776    7.7904 H         1 BEJ         0.0563
     65 H9         16.4357   24.2666    7.3695 H         1 BEJ         0.0731
     66 H10        15.2481   24.3483    8.7147 H         1 BEJ         0.0731
     67 H11        16.0643   23.3247    5.5482 H         1 BEJ         0.0870
     68 H12        13.2102   22.6463    4.7579 H         1 BEJ         0.0674
     69 H13        13.5757   24.9598    5.7455 H         1 BEJ         0.0674
     70 H14        12.3408   25.9413    3.5898 H         1 BEJ         0.0870
     71 H15        10.7575   26.8037    4.7972 H         1 BEJ         0.1883
     72 H16         8.8046   25.2238    6.4705 H         1 BEJ         0.0802
     73 H17        10.2388   27.8099    7.3692 H         1 BEJ         0.0343
     74 H18        11.2032   26.5768    9.3205 H         1 BEJ         0.0234
     75 H19        11.8268   25.9704    7.7489 H         1 BEJ         0.0234
     76 H20        10.5775   25.0367    8.6400 H         1 BEJ         0.0234
     77 H21         7.8607   27.6546    8.1572 H         1 BEJ         0.0234
     78 H22         9.0521   27.6932    9.5009 H         1 BEJ         0.0234
     79 H23         8.2776   26.1419    9.0316 H         1 BEJ         0.0234
     80 H24         6.7240   25.7876    5.9973 H         1 BEJ         0.1848
     81 H25         4.9806   26.9412    4.9976 H         1 BEJ         0.0484
     82 H26         6.1990   27.5511    3.8271 H         1 BEJ         0.0484
     83 H27         5.9055   28.4374    5.3617 H         1 BEJ         0.0484
     84 H28        11.5815   25.5150    1.6298 H         1 BEJ         0.0731
     85 H29        11.5311   23.8636    0.9248 H         1 BEJ         0.0731
     86 H30        14.9787   25.2605    3.3000 H         1 BEJ         0.2102
     87 H31        13.9881   23.0756    2.6551 H         1 BEJ         0.2102
     88 H32        17.0980   21.5791    4.8476 H         1 BEJ         0.1883
     89 H33        16.0607   18.8563    5.5293 H         1 BEJ         0.0802
     90 H34        17.5783   19.6846    2.9831 H         1 BEJ         0.0343
     91 H35        17.2590   17.3388    2.1663 H         1 BEJ         0.0234
     92 H36        16.5489   16.8939    3.7551 H         1 BEJ         0.0234
     93 H37        18.2649   17.4147    3.6525 H         1 BEJ         0.0234
     94 H38        15.1894   20.3670    2.9008 H         1 BEJ         0.0234
     95 H39        14.7137   18.6515    3.1397 H         1 BEJ         0.0234
     96 H40        15.6159   19.1362    1.6640 H         1 BEJ         0.0234
     97 H41        17.5455   17.7907    6.7870 H         1 BEJ         0.1848
     98 H42        19.5551   17.3083    7.8455 H         1 BEJ         0.0484
     99 H43        19.9543   19.0453    7.6215 H         1 BEJ         0.0484
    100 H44        20.3492   17.8594    6.3314 H         1 BEJ         0.0484
    101 H45         5.5379   22.8895    4.6402 H         1 BEJ         0.0731
    102 H46         3.0133   22.8752    4.9566 H         1 BEJ         0.0706
    103 H47         1.6083   24.2050    3.3530 H         1 BEJ         0.0812
    104 H48         4.9953   25.5091    1.2223 H         1 BEJ         0.0822
    105 H49        16.2381   17.5876   10.2178 H         1 BEJ         0.0731
    106 H50        17.3316   15.5641   11.3042 H         1 BEJ         0.0706
    107 H51        19.7092   15.7807   12.0672 H         1 BEJ         0.0812
    108 H52        19.9426   19.7848   10.7633 H         1 BEJ         0.0822
@<TRIPOS>BOND
     1    1    2 ar 
     2    1    6 ar 
     3   31    1 1  
     4    2    3 ar 
     5    3    4 ar 
     6    5    4 ar 
     7    4   45 1  
     8    6    5 ar 
     9    7    8 ar 
    10    7   12 ar 
    11   13    7 1  
    12    8    9 ar 
    13    9   10 ar 
    14   11   10 ar 
    15   12   11 ar 
    16   14   13 1  
    17   15   14 1  
    18   16   15 1  
    19   17   16 1  
    20   18   17 1  
    21   18   19 1  
    22   30   18 1  
    23   19   20 2  
    24   19   21 am 
    25   21   22 1  
    26   22   23 1  
    27   22   26 1  
    28   23   24 1  
    29   23   25 1  
    30   26   27 2  
    31   26   28 am 
    32   28   29 1  
    33   31   30 1  
    34   17   32 1  
    35   16   33 1  
    36   15   34 1  
    37   34   35 2  
    38   34   36 am 
    39   36   37 1  
    40   37   38 1  
    41   37   41 1  
    42   38   39 1  
    43   38   40 1  
    44   41   42 2  
    45   41   43 am 
    46   43   44 1  
    47   45   46 ar 
    48   45   50 ar 
    49   46   47 ar 
    50   47   48 ar 
    51   48   49 ar 
    52   49   50 ar 
    53   10   51 1  
    54   51   52 ar 
    55   51   56 ar 
    56   52   53 ar 
    57   53   54 ar 
    58   54   55 ar 
    59   55   56 ar 
    60    2   57 1  
    61    3   58 1  
    62    5   59 1  
    63    6   60 1  
    64    8   61 1  
    65    9   62 1  
    66   11   63 1  
    67   12   64 1  
    68   13   65 1  
    69   13   66 1  
    70   15   67 1  
    71   16   68 1  
    72   17   69 1  
    73   18   70 1  
    74   21   71 1  
    75   22   72 1  
    76   23   73 1  
    77   24   74 1  
    78   24   75 1  
    79   24   76 1  
    80   25   77 1  
    81   25   78 1  
    82   25   79 1  
    83   28   80 1  
    84   29   81 1  
    85   29   82 1  
    86   29   83 1  
    87   31   84 1  
    88   31   85 1  
    89   32   86 1  
    90   33   87 1  
    91   36   88 1  
    92   37   89 1  
    93   38   90 1  
    94   39   91 1  
    95   39   92 1  
    96   39   93 1  
    97   40   94 1  
    98   40   95 1  
    99   40   96 1  
   100   43   97 1  
   101   44   98 1  
   102   44   99 1  
   103   44  100 1  
   104   46  101 1  
   105   47  102 1  
   106   48  103 1  
   107   50  104 1  
   108   52  105 1  
   109   53  106 1  
   110   54  107 1  
   111   56  108 1  
@<TRIPOS>SUBSTRUCTURE
     1 BEJ         1

