### 
### Created by X-TOOL on Fri Nov 18 13:27:51 2016
### 

@<TRIPOS>MOLECULE
1o0f_ligand
   38    40     1     0     0
SMALL
GAST_HUCK


@<TRIPOS>ATOM
      1 P1         41.2350    6.2550   14.4910 P.3       1 A3P         0.2013
      2 O1P        40.2730    6.5200   13.3460 O.co2     1 A3P        -0.5537
      3 O2P        42.0870    5.0150   14.2710 O.co2     1 A3P        -0.5537
      4 O3P        42.0660    7.4750   14.8500 O.co2     1 A3P        -0.5537
      5 P2         36.3990    3.1920   13.2220 P.3       1 A3P         0.2008
      6 O4P        34.9040    3.4250   13.3170 O.co2     1 A3P        -0.5537
      7 O5P        37.0620    3.9030   12.0590 O.co2     1 A3P        -0.5537
      8 O6P        36.7820    1.7250   13.3210 O.co2     1 A3P        -0.5537
      9 O5         37.0120    3.8560   14.5760 O.3       1 A3P        -0.2734
     10 C5         36.8490    5.2540   14.8460 C.3       1 A3P         0.1075
     11 C4         37.9140    5.7230   15.8040 C.3       1 A3P         0.1229
     12 O4         37.4580    5.5380   17.1740 O.3       1 A3P        -0.3361
     13 C3         39.2600    5.0060   15.6940 C.3       1 A3P         0.1487
     14 O3         40.3250    5.9480   15.7870 O.3       1 A3P        -0.2674
     15 C2         39.2520    4.0720   16.9040 C.3       1 A3P         0.1432
     16 O2         40.5480    3.7810   17.3870 O.3       1 A3P        -0.3832
     17 C1         38.4750    4.9070   17.9190 C.3       1 A3P         0.2013
     18 N9         37.8650    4.1610   19.0230 N.pl3     1 A3P        -0.1919
     19 C8         38.1130    2.8680   19.4250 C.2       1 A3P         0.1123
     20 N7         37.4410    2.5070   20.4910 N.2       1 A3P        -0.2958
     21 C5         36.6900    3.6320   20.8080 C.ar      1 A3P         0.1045
     22 C6         35.7800    3.9010   21.8480 C.ar      1 A3P         0.1298
     23 N6         35.4630    3.0220   22.8050 N.pl3     1 A3P        -0.3152
     24 N1         35.2020    5.1240   21.8760 N.ar      1 A3P        -0.2698
     25 C2         35.5270    6.0070   20.9220 C.ar      1 A3P         0.0533
     26 N3         36.3730    5.8730   19.9000 N.ar      1 A3P        -0.2714
     27 C4         36.9290    4.6510   19.9020 C.ar      1 A3P         0.1613
     28 H1         35.8579    5.4257   15.2911 H         1 A3P         0.0639
     29 H2         36.9313    5.8184   13.9055 H         1 A3P         0.0639
     30 H3         38.0799    6.7942   15.6168 H         1 A3P         0.0654
     31 H4         39.3401    4.4413   14.7534 H         1 A3P         0.0704
     32 H5         38.7321    3.1306   16.6727 H         1 A3P         0.0680
     33 H6         41.0534    3.3606   16.7011 H         1 A3P         0.2101
     34 H7         39.1516    5.6597   18.3499 H         1 A3P         0.0996
     35 H8         38.8039    2.2059   18.9052 H         1 A3P         0.1349
     36 H9         34.7887    3.2809   23.5392 H         1 A3P         0.1820
     37 H10        35.8932    2.0862   22.8077 H         1 A3P         0.1820
     38 H11        35.0309    6.9684   20.9909 H         1 A3P         0.0996
@<TRIPOS>BOND
     1    1    2 ar 
     2    1    3 ar 
     3    1    4 ar 
     4   14    1 1  
     5    5    6 ar 
     6    5    7 ar 
     7    5    8 ar 
     8    9    5 1  
     9   10    9 1  
    10   11   10 1  
    11   11   12 1  
    12   13   11 1  
    13   12   17 1  
    14   13   14 1  
    15   13   15 1  
    16   15   16 1  
    17   15   17 1  
    18   17   18 1  
    19   18   19 1  
    20   18   27 1  
    21   19   20 2  
    22   20   21 1  
    23   21   22 ar 
    24   21   27 ar 
    25   22   23 1  
    26   22   24 ar 
    27   24   25 ar 
    28   25   26 ar 
    29   26   27 ar 
    30   10   28 1  
    31   10   29 1  
    32   11   30 1  
    33   13   31 1  
    34   15   32 1  
    35   16   33 1  
    36   17   34 1  
    37   19   35 1  
    38   23   36 1  
    39   23   37 1  
    40   25   38 1  
@<TRIPOS>SUBSTRUCTURE
     1 A3P         1

