### 
### Created by X-TOOL on Fri Nov 18 14:31:30 2016
### 

@<TRIPOS>MOLECULE
2gz2_ligand
   38    40     1     0     0
SMALL
GAST_HUCK


@<TRIPOS>ATOM
      1 P1          1.4420    8.9460   53.3390 P.3       1 A2P         0.2015
      2 O1P         0.9540    8.6710   51.8130 O.co2     1 A2P        -0.5537
      3 O2P         3.0620    9.1320   53.2210 O.co2     1 A2P        -0.5537
      4 O3P         1.0560    7.8390   54.2520 O.co2     1 A2P        -0.5537
      5 P2          3.8250   14.8310   50.2440 P.3       1 A2P         0.2008
      6 O4P         3.8970   14.3170   48.7180 O.co2     1 A2P        -0.5537
      7 O5P         4.2110   13.5180   51.1230 O.co2     1 A2P        -0.5537
      8 O6P         4.7690   15.9330   50.4890 O.co2     1 A2P        -0.5537
      9 O5'         2.2490   15.1100   50.6700 O.3       1 A2P        -0.2734
     10 C5'         1.3550   14.0000   50.9440 C.3       1 A2P         0.1072
     11 C4'         1.0560   13.7820   52.4660 C.3       1 A2P         0.1185
     12 O4'        -0.3910   13.5720   52.6600 O.3       1 A2P        -0.3362
     13 C3'         1.7100   12.5380   53.1060 C.3       1 A2P         0.1196
     14 O3'         1.8720   12.7410   54.5170 O.3       1 A2P        -0.3860
     15 C2'         0.6480   11.4650   52.8860 C.3       1 A2P         0.1722
     16 O2'         0.8170   10.3770   53.8070 O.3       1 A2P        -0.2647
     17 C1'        -0.5980   12.2540   53.2590 C.3       1 A2P         0.2057
     18 N9         -1.8240   11.6310   52.7050 N.pl3     1 A2P        -0.1916
     19 C8         -2.0910   11.4230   51.4090 C.2       1 A2P         0.1123
     20 N7         -3.2900   10.8440   51.2890 N.2       1 A2P        -0.2958
     21 C5         -3.7910   10.6800   52.5150 C.ar      1 A2P         0.1045
     22 C6         -4.9750   10.1440   53.0160 C.ar      1 A2P         0.1298
     23 N6         -5.8950    9.6630   52.1970 N.pl3     1 A2P        -0.3152
     24 N1         -5.1840   10.1240   54.3430 N.ar      1 A2P        -0.2698
     25 C2         -4.2700   10.6120   55.1760 C.ar      1 A2P         0.0533
     26 N3         -3.1240   11.1260   54.7360 N.ar      1 A2P        -0.2714
     27 C4         -2.8560   11.1770   53.4170 C.ar      1 A2P         0.1613
     28 H1          1.8120   13.0818   50.5466 H         1 A2P         0.0639
     29 H2          0.4019   14.1882   50.4280 H         1 A2P         0.0639
     30 H3          1.3869   14.6796   53.0090 H         1 A2P         0.0650
     31 H4          2.6698   12.2831   52.6329 H         1 A2P         0.0651
     32 H5          2.2746   11.9716   54.9023 H         1 A2P         0.2100
     33 H6          0.6278   11.0970   51.8496 H         1 A2P         0.0732
     34 H7         -0.6906   12.3324   54.3523 H         1 A2P         0.1000
     35 H8         -1.4334   11.6849   50.5814 H         1 A2P         0.1349
     36 H9         -6.7673    9.2687   52.5770 H         1 A2P         0.1820
     37 H10        -5.7393    9.6827   51.1790 H         1 A2P         0.1820
     38 H11        -4.4634   10.5907   56.2424 H         1 A2P         0.0996
@<TRIPOS>BOND
     1    1    2 ar 
     2    1    3 ar 
     3    1    4 ar 
     4   16    1 1  
     5    5    6 ar 
     6    5    7 ar 
     7    5    8 ar 
     8    9    5 1  
     9   10    9 1  
    10   11   10 1  
    11   11   12 1  
    12   13   11 1  
    13   12   17 1  
    14   13   14 1  
    15   15   13 1  
    16   15   16 1  
    17   15   17 1  
    18   17   18 1  
    19   18   19 1  
    20   18   27 1  
    21   19   20 2  
    22   20   21 1  
    23   21   22 ar 
    24   21   27 ar 
    25   22   23 1  
    26   22   24 ar 
    27   24   25 ar 
    28   25   26 ar 
    29   26   27 ar 
    30   10   28 1  
    31   10   29 1  
    32   11   30 1  
    33   13   31 1  
    34   14   32 1  
    35   15   33 1  
    36   17   34 1  
    37   19   35 1  
    38   23   36 1  
    39   23   37 1  
    40   25   38 1  
@<TRIPOS>SUBSTRUCTURE
     1 A2P         1

