### 
### Created by X-TOOL on Fri Nov 18 17:12:12 2016
### 

@<TRIPOS>MOLECULE
4dmw_ligand
   36    37     1     0     0
SMALL
GAST_HUCK


@<TRIPOS>ATOM
      1 N1          6.3050   27.2570   18.0250 N.am      1 UDP        -0.1592
      2 C2          4.9930   26.9780   18.3420 C.2       1 UDP         0.3328
      3 N3          4.3260   25.9570   17.6910 N.am      1 UDP        -0.1865
      4 C4          4.9710   25.2060   16.7210 C.2       1 UDP         0.1822
      5 C5          6.3020   25.4940   16.4130 C.2       1 UDP         0.0062
      6 C6          6.8640   26.6730   16.9140 C.2       1 UDP         0.0591
      7 O2          4.4270   27.6460   19.2030 O.2       1 UDP        -0.3815
      8 O4          4.3690   24.2920   16.1480 O.2       1 UDP        -0.4124
      9 C1'         6.9690   28.3440   18.7520 C.3       1 UDP         0.2059
     10 C2'         7.4760   27.7480   20.0460 C.3       1 UDP         0.1387
     11 O2'         7.2660   28.7250   21.0540 O.3       1 UDP        -0.3836
     12 C3'         8.9460   27.4820   19.7530 C.3       1 UDP         0.1149
     13 C4'         9.2780   28.6670   18.8430 C.3       1 UDP         0.1189
     14 O4'         8.0980   28.8410   18.0600 O.3       1 UDP        -0.3363
     15 O3'         9.7480   27.4380   20.9210 O.3       1 UDP        -0.3864
     16 C5'        10.4920   28.4290   17.9420 C.3       1 UDP         0.1132
     17 O5'        10.1870   27.4200   16.9990 O.3       1 UDP        -0.2436
     18 PA         11.3580   26.5430   16.3130 P.3       1 UDP         0.3276
     19 O1A        10.7930   25.2890   15.7220 O.co2     1 UDP        -0.5556
     20 O2A        12.3500   26.1990   17.3680 O.co2     1 UDP        -0.5556
     21 O3A        11.9690   27.5560   15.2090 O.3       1 UDP        -0.1548
     22 PB         13.4880   28.1070   15.0500 P.3       1 UDP         0.2069
     23 O1B        13.6520   28.7700   13.7290 O.co2     1 UDP        -0.5891
     24 O2B        14.4890   27.0190   15.1070 O.co2     1 UDP        -0.5891
     25 O3B        13.8110   29.0900   16.1170 O.co2     1 UDP        -0.5891
     26 H1          3.3731   25.7593   17.9212 H         1 UDP         0.2259
     27 H2          6.8898   24.8157   15.7963 H         1 UDP         0.0258
     28 H3          7.7311   27.1210   16.4309 H         1 UDP         0.1178
     29 H4          6.2565   29.1599   18.9431 H         1 UDP         0.0997
     30 H5          6.9547   26.8155   20.3079 H         1 UDP         0.0676
     31 H6          7.5726   28.3889   21.8880 H         1 UDP         0.2101
     32 H7          9.0687   26.5312   19.2136 H         1 UDP         0.0648
     33 H8          9.4679   29.5622   19.4534 H         1 UDP         0.0651
     34 H9         10.6622   27.3649   20.6735 H         1 UDP         0.2100
     35 H10        11.3477   28.1110   18.5557 H         1 UDP         0.0648
     36 H11        10.7453   29.3602   17.4140 H         1 UDP         0.0648
@<TRIPOS>BOND
     1    1    2 am 
     2    1    6 1  
     3    1    9 1  
     4    2    3 am 
     5    2    7 2  
     6    3    4 am 
     7    4    5 1  
     8    4    8 2  
     9    5    6 2  
    10    9   10 1  
    11    9   14 1  
    12   10   11 1  
    13   10   12 1  
    14   12   13 1  
    15   12   15 1  
    16   13   14 1  
    17   13   16 1  
    18   16   17 1  
    19   17   18 1  
    20   18   19 ar 
    21   18   20 ar 
    22   18   21 1  
    23   21   22 1  
    24   22   23 ar 
    25   22   24 ar 
    26   22   25 ar 
    27    3   26 1  
    28    5   27 1  
    29    6   28 1  
    30    9   29 1  
    31   10   30 1  
    32   11   31 1  
    33   12   32 1  
    34   13   33 1  
    35   15   34 1  
    36   16   35 1  
    37   16   36 1  
@<TRIPOS>SUBSTRUCTURE
     1 UDP         1

