### 
### Created by X-TOOL on Fri Nov 18 12:19:18 2016
### 

@<TRIPOS>MOLECULE
1jmf_ligand
   31    32     1     0     0
SMALL
GAST_HUCK


@<TRIPOS>ATOM
      1 N1         14.7000   46.2250  -51.5450 N.am      1 UMP        -0.1618
      2 C2         14.1990   44.9350  -51.3010 C.2       1 UMP         0.3327
      3 N3         13.2050   44.7180  -50.3860 N.am      1 UMP        -0.1865
      4 C4         12.6180   45.6900  -49.6300 C.2       1 UMP         0.1822
      5 C5         13.1670   47.0690  -49.8880 C.2       1 UMP         0.0062
      6 C6         14.2180   47.2810  -50.8550 C.2       1 UMP         0.0590
      7 O2         14.5820   43.9050  -51.8200 O.2       1 UMP        -0.3815
      8 O4         11.7630   45.2880  -48.8340 O.2       1 UMP        -0.4124
      9 C1         15.5920   46.3810  -52.7540 C.3       1 UMP         0.1800
     10 C2         14.8940   46.1230  -54.0930 C.3       1 UMP         0.0316
     11 C3         15.9730   46.3300  -55.1410 C.3       1 UMP         0.0890
     12 C4         16.8350   47.4990  -54.6470 C.3       1 UMP         0.1156
     13 O3         16.7760   45.1580  -55.2110 O.3       1 UMP        -0.3890
     14 O4         16.3780   47.6000  -53.1770 O.3       1 UMP        -0.3387
     15 C5         16.5160   48.7610  -55.4490 C.3       1 UMP         0.1071
     16 O5         16.8950   48.5750  -56.8760 O.3       1 UMP        -0.2734
     17 P          15.9400   49.1560  -58.0410 P.3       1 UMP         0.2008
     18 O1P        16.6270   49.3060  -59.3490 O.co2     1 UMP        -0.5537
     19 O2P        14.9130   48.1150  -58.1330 O.co2     1 UMP        -0.5537
     20 O3P        15.3230   50.4200  -57.6170 O.co2     1 UMP        -0.5537
     21 H1         12.8856   43.7785  -50.2625 H         1 UMP         0.2259
     22 H2         12.7653   47.9182  -49.3372 H         1 UMP         0.0258
     23 H3         14.6169   48.2798  -51.0257 H         1 UMP         0.1178
     24 H4         16.3411   45.5909  -52.5976 H         1 UMP         0.0970
     25 H5         14.0678   46.8337  -54.2423 H         1 UMP         0.0345
     26 H6         14.5054   45.0948  -54.1353 H         1 UMP         0.0345
     27 H7         15.5316   46.5535  -56.1235 H         1 UMP         0.0622
     28 H8         17.9099   47.2768  -54.7192 H         1 UMP         0.0649
     29 H9         16.2468   44.4307  -55.5165 H         1 UMP         0.2099
     30 H10        17.0793   49.6085  -55.0314 H         1 UMP         0.0639
     31 H11        15.4379   48.9695  -55.3840 H         1 UMP         0.0639
@<TRIPOS>BOND
     1    1    2 am 
     2    1    6 am 
     3    1    9 1  
     4    2    3 am 
     5    2    7 2  
     6    3    4 am 
     7    4    5 1  
     8    4    8 2  
     9    5    6 2  
    10    9   10 1  
    11    9   14 1  
    12   10   11 1  
    13   11   12 1  
    14   11   13 1  
    15   12   14 1  
    16   12   15 1  
    17   15   16 1  
    18   16   17 1  
    19   17   18 ar 
    20   17   19 ar 
    21   17   20 ar 
    22    3   21 1  
    23    5   22 1  
    24    6   23 1  
    25    9   24 1  
    26   10   25 1  
    27   10   26 1  
    28   11   27 1  
    29   12   28 1  
    30   13   29 1  
    31   15   30 1  
    32   15   31 1  
@<TRIPOS>SUBSTRUCTURE
     1 UMP         1

