### 
### Created by X-TOOL on Fri Nov 18 17:27:35 2016
### 

@<TRIPOS>MOLECULE
4nkt_ligand
   41    42     1     0     0
SMALL
GAST_HUCK


@<TRIPOS>ATOM
      1 PA         63.6670   19.2900   93.6550 P.3       1 2KH         0.2362
      2 O1A        65.0990   18.8440   94.1920 O.co2     1 2KH        -0.6036
      3 O2A        62.8440   19.7890   94.8050 O.co2     1 2KH        -0.6036
      4 N3A        62.9310   18.0020   92.9080 N.am      1 2KH        -0.1581
      5 O5'        63.9070   20.4890   92.6320 O.3       1 2KH        -0.2529
      6 PB         61.5380   17.4750   93.6130 P.3       1 2KH         0.2871
      7 O1B        60.6270   18.6880   94.0670 O.co2     1 2KH        -0.5685
      8 O2B        60.8360   16.7370   92.5270 O.co2     1 2KH        -0.5685
      9 O3B        61.7110   16.3910   94.7960 O.3       1 2KH        -0.1659
     10 PG         61.6050   16.6820   96.3400 P.3       1 2KH         0.2047
     11 O1G        60.3740   16.1090   96.8020 O.co2     1 2KH        -0.5893
     12 O2G        61.6170   18.1410   96.6620 O.co2     1 2KH        -0.5893
     13 O3G        62.7430   16.0420   97.0820 O.co2     1 2KH        -0.5893
     14 C5'        62.8670   20.9490   91.7790 C.3       1 2KH         0.1133
     15 C4'        63.2620   21.8670   90.7040 C.3       1 2KH         0.1191
     16 O4'        63.8890   23.0500   91.2240 O.3       1 2KH        -0.3362
     17 C1'        64.9530   23.3870   90.3610 C.3       1 2KH         0.2059
     18 C2'        64.8730   22.4230   89.2540 C.3       1 2KH         0.1387
     19 O2'        64.0450   22.8760   88.2140 O.3       1 2KH        -0.3836
     20 C3'        64.2730   21.2570   89.8760 C.3       1 2KH         0.1149
     21 O3'        63.7100   20.3410   88.9530 O.3       1 2KH        -0.3864
     22 N1         66.2180   23.3130   91.0300 N.am      1 2KH        -0.1592
     23 C6         66.3670   22.5720   92.1720 C.2       1 2KH         0.0591
     24 C2         67.2990   23.9780   90.5080 C.2       1 2KH         0.3328
     25 O2         67.1580   24.6730   89.4300 O.2       1 2KH        -0.3815
     26 N3         68.5020   23.9200   91.1020 N.am      1 2KH        -0.1865
     27 C4         68.6980   23.2050   92.2230 C.2       1 2KH         0.1822
     28 O4         69.9420   23.1390   92.8210 O.2       1 2KH        -0.4124
     29 C5         67.6050   22.4930   92.8070 C.2       1 2KH         0.0062
     30 H1         63.3078   17.5752   92.0859 H         1 2KH         0.2175
     31 H2         62.1251   21.4664   92.4050 H         1 2KH         0.0651
     32 H3         62.4025   20.0678   91.3125 H         1 2KH         0.0651
     33 H4         62.3768   22.1316   90.1070 H         1 2KH         0.0651
     34 H5         64.8158   24.4093   89.9787 H         1 2KH         0.0997
     35 H6         65.8740   22.1973   88.8578 H         1 2KH         0.0676
     36 H7         64.0221   22.2249   87.5225 H         1 2KH         0.2101
     37 H8         65.0142   20.7233   90.4889 H         1 2KH         0.0648
     38 H9         63.0294   20.7754   88.4526 H         1 2KH         0.2100
     39 H10        65.5118   22.0406   92.5869 H         1 2KH         0.1178
     40 H11        69.2695   24.4202   90.7011 H         1 2KH         0.2259
     41 H12        67.7351   21.9089   93.7168 H         1 2KH         0.0258
@<TRIPOS>BOND
     1    1    2 ar 
     2    1    3 ar 
     3    1    4 am 
     4    1    5 1  
     5    4    6 1  
     6    5   14 1  
     7    6    7 ar 
     8    6    8 ar 
     9    6    9 1  
    10    9   10 1  
    11   10   11 ar 
    12   10   12 ar 
    13   10   13 ar 
    14   14   15 1  
    15   15   16 1  
    16   15   20 1  
    17   16   17 1  
    18   17   18 1  
    19   17   22 1  
    20   18   19 1  
    21   18   20 1  
    22   20   21 1  
    23   22   23 1  
    24   22   24 am 
    25   23   29 2  
    26   24   25 2  
    27   24   26 am 
    28   26   27 am 
    29   27   28 2  
    30   27   29 1  
    31    4   30 1  
    32   14   31 1  
    33   14   32 1  
    34   15   33 1  
    35   17   34 1  
    36   18   35 1  
    37   19   36 1  
    38   20   37 1  
    39   21   38 1  
    40   23   39 1  
    41   26   40 1  
    42   29   41 1  
@<TRIPOS>SUBSTRUCTURE
     1 2KH         1

