### 
### Created by X-TOOL on Fri Nov 18 15:10:12 2016
### 

@<TRIPOS>MOLECULE
3b2q_ligand
   43    45     1     0     0
SMALL
GAST_HUCK


@<TRIPOS>ATOM
      1 PG        -25.3330  -18.1210   18.1580 P.3       1 ATP         0.1879
      2 O1G       -23.9650  -17.8060   17.6030 O.co2     1 ATP        -0.6091
      3 O2G       -26.4230  -18.2120   17.1170 O.co2     1 ATP        -0.6091
      4 O3G       -25.3510  -19.2350   19.1780 O.co2     1 ATP        -0.6091
      5 PB        -24.6620  -15.6060   19.1770 P.3       1 ATP         0.3553
      6 O1B       -23.6320  -16.0200   20.2010 O.co2     1 ATP        -0.5652
      7 O2B       -24.2220  -15.1690   17.8010 O.co2     1 ATP        -0.5652
      8 O3B       -25.7170  -16.8100   19.0100 O.3       1 ATP        -0.1546
      9 PA        -25.1000  -12.8960   19.7040 P.3       1 ATP         0.3266
     10 O1A       -25.7940  -12.2780   18.5140 O.co2     1 ATP        -0.5692
     11 O2A       -23.5940  -12.8470   19.8070 O.co2     1 ATP        -0.5692
     12 O3A       -25.5630  -14.4340   19.8140 O.3       1 ATP        -0.1171
     13 O5'       -25.7180  -12.2460   21.0410 O.3       1 ATP        -0.2441
     14 C5'       -24.8890  -11.5070   21.9370 C.3       1 ATP         0.1131
     15 C4'       -25.0810  -10.0150   21.6920 C.3       1 ATP         0.1189
     16 O4'       -26.1820   -9.5410   22.4740 O.3       1 ATP        -0.3364
     17 C3'       -23.8440   -9.2300   22.1060 C.3       1 ATP         0.1149
     18 O3'       -23.3440   -8.5000   20.9800 O.3       1 ATP        -0.3864
     19 C2'       -24.2970   -8.2580   23.1800 C.3       1 ATP         0.1385
     20 O2'       -24.0810   -6.9150   22.7300 O.3       1 ATP        -0.3836
     21 C1'       -25.7890   -8.4960   23.3680 C.3       1 ATP         0.2010
     22 N9        -26.0510   -8.9170   24.7680 N.pl3     1 ATP        -0.1919
     23 C8        -25.4520   -8.4160   25.8650 C.2       1 ATP         0.1123
     24 N7        -25.9140   -9.0150   26.9920 N.2       1 ATP        -0.2958
     25 C5        -26.8330   -9.9240   26.6190 C.ar      1 ATP         0.1045
     26 C6        -27.7090  -10.9030   27.3060 C.ar      1 ATP         0.1298
     27 N6        -27.6930  -11.0310   28.6550 N.pl3     1 ATP        -0.3152
     28 N1        -28.5240  -11.6630   26.5410 N.ar      1 ATP        -0.2698
     29 C2        -28.5490  -11.5450   25.2010 C.ar      1 ATP         0.0533
     30 N3        -27.7830  -10.6800   24.5120 N.ar      1 ATP        -0.2714
     31 C4        -26.9190   -9.8560   25.1520 C.ar      1 ATP         0.1613
     32 H1        -23.8356  -11.7740   21.7668 H         1 ATP         0.0648
     33 H2        -25.1651  -11.7468   22.9744 H         1 ATP         0.0648
     34 H3        -25.2823   -9.8470   20.6237 H         1 ATP         0.0651
     35 H4        -23.0666   -9.9044   22.4944 H         1 ATP         0.0648
     36 H5        -24.0123   -7.8997   20.6711 H         1 ATP         0.2100
     37 H6        -23.7529   -8.4341   24.1196 H         1 ATP         0.0676
     38 H7        -24.5792   -6.7645   21.9352 H         1 ATP         0.2101
     39 H8        -26.3498   -7.5764   23.1447 H         1 ATP         0.0996
     40 H9        -24.6957   -7.6326   25.8499 H         1 ATP         0.1349
     41 H10       -28.3089  -11.7168   29.1146 H         1 ATP         0.1820
     42 H11       -27.0649  -10.4425   29.2207 H         1 ATP         0.1820
     43 H12       -29.2253  -12.1837   24.6445 H         1 ATP         0.0996
@<TRIPOS>BOND
     1    1    2 ar 
     2    1    3 ar 
     3    1    4 ar 
     4    8    1 1  
     5    5    6 ar 
     6    5    7 ar 
     7    5    8 1  
     8   12    5 1  
     9    9   10 ar 
    10    9   11 ar 
    11    9   12 1  
    12    9   13 1  
    13   13   14 1  
    14   14   15 1  
    15   15   16 1  
    16   15   17 1  
    17   16   21 1  
    18   17   18 1  
    19   17   19 1  
    20   19   20 1  
    21   19   21 1  
    22   21   22 1  
    23   22   23 1  
    24   22   31 1  
    25   23   24 2  
    26   24   25 1  
    27   25   26 ar 
    28   25   31 ar 
    29   26   27 1  
    30   26   28 ar 
    31   28   29 ar 
    32   29   30 ar 
    33   30   31 ar 
    34   14   32 1  
    35   14   33 1  
    36   15   34 1  
    37   17   35 1  
    38   18   36 1  
    39   19   37 1  
    40   20   38 1  
    41   21   39 1  
    42   23   40 1  
    43   27   41 1  
    44   27   42 1  
    45   29   43 1  
@<TRIPOS>SUBSTRUCTURE
     1 ATP         1

