### 
### Created by X-TOOL on Fri Nov 18 14:50:29 2016
### 

@<TRIPOS>MOLECULE
2cle_ligand
   30    30     1     0     0
SMALL
GAST_HUCK


@<TRIPOS>ATOM
      1 C1         51.7200   23.8780   14.4210 C.ar      1 F6F         0.1060
      2 C2         50.4650   23.6580   15.0880 C.ar      1 F6F        -0.0266
      3 C3         49.4940   24.7100   15.1640 C.ar      1 F6F        -0.0504
      4 C4         49.7460   26.0110   14.5690 C.ar      1 F6F         0.0385
      5 C5         51.0070   26.2460   13.8880 C.ar      1 F6F        -0.0504
      6 C6         51.9940   25.1730   13.8140 C.ar      1 F6F        -0.0266
      7 O7         52.7120   22.9250   14.3270 O.3       1 F6F        -0.2218
      8 C8         52.5400   21.9660   13.2950 C.3       1 F6F         0.5476
      9 F9         51.4150   21.2770   13.4470 F         1 F6F        -0.1398
     10 F10        53.5420   21.1010   13.3040 F         1 F6F        -0.1398
     11 F11        52.5060   22.5380   12.1010 F         1 F6F        -0.1398
     12 C12        48.6630   27.0920   14.7260 C.2       1 F6F         0.1969
     13 N13        48.4310   27.5240   13.4460 N.am      1 F6F        -0.2852
     14 O14        47.6640   26.7460   15.3430 O.2       1 F6F        -0.3898
     15 C15        47.2740   28.4610   13.3530 C.3       1 F6F         0.0580
     16 C16        46.9120   28.9840   11.9940 C.3       1 F6F         0.0984
     17 O17        47.6020   28.4260   10.9790 O.3       1 F6F        -0.2741
     18 P18        47.9130   29.5930    9.8780 P.3       1 F6F         0.2008
     19 O19        48.2130   28.9380    8.5470 O.co2     1 F6F        -0.5537
     20 O20        49.1300   30.2750   10.4310 O.co2     1 F6F        -0.5537
     21 O21        46.6000   30.3370    9.7450 O.co2     1 F6F        -0.5537
     22 H1         50.2525   22.6935   15.5348 H         1 F6F         0.0556
     23 H2         48.5547   24.5313   15.6747 H         1 F6F         0.0642
     24 H3         51.2136   27.2104   13.4383 H         1 F6F         0.0642
     25 H4         52.9359   25.3411   13.3045 H         1 F6F         0.0556
     26 H5         48.9788   27.2412   12.6586 H         1 F6F         0.1842
     27 H6         47.5010   29.3287   13.9899 H         1 F6F         0.0545
     28 H7         46.3924   27.9359   13.7492 H         1 F6F         0.0545
     29 H8         47.0990   30.0679   11.9818 H         1 F6F         0.0632
     30 H9         45.8414   28.7947   11.8268 H         1 F6F         0.0632
@<TRIPOS>BOND
     1    1    2 ar 
     2    1    6 ar 
     3    1    7 1  
     4    2    3 ar 
     5    3    4 ar 
     6    4    5 ar 
     7    4   12 1  
     8    5    6 ar 
     9    7    8 1  
    10    8    9 1  
    11    8   10 1  
    12    8   11 1  
    13   12   13 am 
    14   12   14 2  
    15   13   15 1  
    16   15   16 1  
    17   16   17 1  
    18   17   18 1  
    19   18   19 ar 
    20   18   20 ar 
    21   18   21 ar 
    22    2   22 1  
    23    3   23 1  
    24    5   24 1  
    25    6   25 1  
    26   13   26 1  
    27   15   27 1  
    28   15   28 1  
    29   16   29 1  
    30   16   30 1  
@<TRIPOS>SUBSTRUCTURE
     1 F6F         1

