### 
### Created by X-TOOL on Fri Nov 18 16:02:54 2016
### 

@<TRIPOS>MOLECULE
3k5x_ligand
   27    26     1     0     0
SMALL
GAST_HUCK


@<TRIPOS>ATOM
      1 C1        -24.9770   32.0890  -15.4850 C.3       1 P8D        -0.0049
      2 N1        -23.7790   30.1720  -16.4460 N.4       1 P8D         0.2334
      3 C2        -24.4010   30.6870  -15.2160 C.3       1 P8D         0.0344
      4 P3        -25.6610   29.4480  -14.7410 P.3       1 P8D         0.0371
      5 C4        -26.2570   29.8510  -13.0780 C.3       1 P8D         0.0344
      6 C5        -27.7880   30.0400  -12.8560 C.3       1 P8D         0.0392
      7 C6        -28.6010   28.8240  -13.3640 C.2       1 P8D         0.0410
      8 C7        -28.0390   30.4630  -11.3930 C.3       1 P8D         0.0160
      9 C8        -27.6100   31.8570  -10.9160 C.2       1 P8D         0.0367
     10 O31       -25.0960   28.0730  -14.7130 O.co2     1 P8D        -0.6154
     11 O32       -26.8740   29.5180  -15.7730 O.co2     1 P8D        -0.6154
     12 O61       -29.8290   28.9360  -13.4050 O.co2     1 P8D        -0.5686
     13 O62       -27.9860   27.7990  -13.7320 O.co2     1 P8D        -0.5686
     14 O81       -27.8840   32.8360  -11.6360 O.co2     1 P8D        -0.5689
     15 O82       -27.0080   31.9010   -9.8270 O.co2     1 P8D        -0.5689
     16 H1        -24.1618   32.7731  -15.7633 H         1 P8D         0.0301
     17 H2        -25.4744   32.4614  -14.5773 H         1 P8D         0.0301
     18 H3        -25.7063   32.0344  -16.3066 H         1 P8D         0.0301
     19 H4        -23.0703   30.8166  -16.7594 H         1 P8D         0.2012
     20 H5        -24.4819   30.0717  -17.1614 H         1 P8D         0.2012
     21 H6        -23.3586   29.2750  -16.2598 H         1 P8D         0.2012
     22 H7        -23.6503   30.7652  -14.4158 H         1 P8D         0.1062
     23 H8        -25.7683   30.7896  -12.7777 H         1 P8D         0.0489
     24 H9        -25.9314   29.0385  -12.4118 H         1 P8D         0.0489
     25 H10       -28.1023   30.8897  -13.4799 H         1 P8D         0.0499
     26 H11       -27.5156   29.7341  -10.7568 H         1 P8D         0.0452
     27 H12       -29.1229   30.3878  -11.2216 H         1 P8D         0.0452
@<TRIPOS>BOND
     1    1    3 1  
     2    3    2 1  
     3    3    4 1  
     4    4    5 1  
     5    4   10 ar 
     6    4   11 ar 
     7    5    6 1  
     8    6    7 1  
     9    6    8 1  
    10    7   12 ar 
    11    7   13 ar 
    12    8    9 1  
    13    9   14 ar 
    14    9   15 ar 
    15    1   16 1  
    16    1   17 1  
    17    1   18 1  
    18    2   19 1  
    19    2   20 1  
    20    2   21 1  
    21    3   22 1  
    22    5   23 1  
    23    5   24 1  
    24    6   25 1  
    25    8   26 1  
    26    8   27 1  
@<TRIPOS>SUBSTRUCTURE
     1 P8D         1

