### 
### Created by X-TOOL on Fri Nov 18 15:04:35 2016
### 

@<TRIPOS>MOLECULE
2vvp_ligand
   23    22     1     0     0
SMALL
GAST_HUCK


@<TRIPOS>ATOM
      1 O2         24.3550   -6.1240   14.2550 O.2       1 R52        -0.3721
      2 C1         25.3920   -6.7760   14.2150 C.2       1 R52         0.1304
      3 O3         24.2970   -8.8940   13.7760 O.3       1 R52        -0.3699
      4 C3         26.7660   -8.7900   13.5570 C.3       1 R52         0.1250
      5 O4         27.0390   -9.5650   12.3760 O.3       1 R52        -0.3841
      6 C2         26.8400   -9.6700   14.8040 C.3       1 R52         0.1133
      7 O5         26.6620   -8.8300   15.9510 O.3       1 R52        -0.3864
      8 C5         28.1780  -10.4040   14.8950 C.3       1 R52         0.1069
      9 C4         25.4090   -8.0730   13.4180 C.3       1 R52         0.1537
     10 O6         28.2960  -11.1310   16.1380 O.3       1 R52        -0.2734
     11 P1         29.4950  -12.1970   16.3530 P.3       1 R52         0.2008
     12 O9         29.5870  -12.9910   15.0720 O.co2     1 R52        -0.5537
     13 O7         29.0280  -13.0270   17.5460 O.co2     1 R52        -0.5537
     14 O8         30.7500  -11.3900   16.5920 O.co2     1 R52        -0.5537
     15 H1         26.2834   -6.4344   14.7391 H         1 R52         0.1377
     16 H2         24.3419   -9.0996   14.7024 H         1 R52         0.2136
     17 H3         27.5445   -8.0181   13.6473 H         1 R52         0.0673
     18 H4         27.9097   -9.9395   12.4387 H         1 R52         0.2102
     19 H5         26.0312  -10.4146   14.7674 H         1 R52         0.0648
     20 H6         26.7047   -9.3588   16.7391 H         1 R52         0.2100
     21 H7         28.9944   -9.6696   14.8309 H         1 R52         0.0639
     22 H8         28.2555  -11.1125   14.0571 H         1 R52         0.0639
     23 H9         25.2902   -7.8119   12.3561 H         1 R52         0.0855
@<TRIPOS>BOND
     1    2    1 2  
     2    9    2 1  
     3    9    3 1  
     4    4    5 1  
     5    4    6 1  
     6    4    9 1  
     7    6    7 1  
     8    6    8 1  
     9    8   10 1  
    10   10   11 1  
    11   11   12 ar 
    12   11   13 ar 
    13   11   14 ar 
    14    2   15 1  
    15    3   16 1  
    16    4   17 1  
    17    5   18 1  
    18    6   19 1  
    19    7   20 1  
    20    8   21 1  
    21    8   22 1  
    22    9   23 1  
@<TRIPOS>SUBSTRUCTURE
     1 R52         1

