2vvp_ligand

Created by X-TOOL on Fri Nov 18 15:04:35 2016
 23 22  0  0  0  0  0  0  0  0999 V2000
   24.3550   -6.1240   14.2550  O 0  0  0  1  0  1
   25.3920   -6.7760   14.2150  C 0  0  0  2  0  3
   24.2970   -8.8940   13.7760  O 0  0  0  2  0  2
   26.7660   -8.7900   13.5570  C 0  0  0  2  0  4
   27.0390   -9.5650   12.3760  O 0  0  0  2  0  2
   26.8400   -9.6700   14.8040  C 0  0  0  2  0  4
   26.6620   -8.8300   15.9510  O 0  0  0  2  0  2
   28.1780  -10.4040   14.8950  C 0  0  0  3  0  4
   25.4090   -8.0730   13.4180  C 0  0  0  2  0  4
   28.2960  -11.1310   16.1380  O 0  0  0  1  0  2
   29.4950  -12.1970   16.3530  P 0  0  0  1  0  4
   29.5870  -12.9910   15.0720  O 0  0  0  1  0  1
   29.0280  -13.0270   17.5460  O 0  0  0  1  0  1
   30.7500  -11.3900   16.5920  O 0  0  0  1  0  1
   26.2834   -6.4344   14.7391  H 0  0  0  1  0  1
   24.3419   -9.0996   14.7024  H 0  0  0  1  0  1
   27.5445   -8.0181   13.6473  H 0  0  0  1  0  1
   27.9097   -9.9395   12.4387  H 0  0  0  1  0  1
   26.0312  -10.4146   14.7674  H 0  0  0  1  0  1
   26.7047   -9.3588   16.7391  H 0  0  0  1  0  1
   28.9944   -9.6696   14.8309  H 0  0  0  1  0  1
   28.2555  -11.1125   14.0571  H 0  0  0  1  0  1
   25.2902   -7.8119   12.3561  H 0  0  0  1  0  1
  2  1  2  0  0  2
  9  2  1  0  0  2
  9  3  1  0  0  2
  4  5  1  0  0  2
  4  6  1  0  0  2
  4  9  1  0  0  2
  6  7  1  0  0  2
  6  8  1  0  0  2
  8 10  1  0  0  2
 10 11  1  0  0  2
 11 12  2  0  0  2
 11 13  2  0  0  2
 11 14  2  0  0  2
  2 15  1  0  0  2
  3 16  1  0  0  2
  4 17  1  0  0  2
  5 18  1  0  0  2
  6 19  1  0  0  2
  7 20  1  0  0  2
  8 21  1  0  0  2
  8 22  1  0  0  2
  9 23  1  0  0  2
M  END
> <MOLECULAR_FORMULA>
C5H9O8P

> <MOLECULAR_WEIGHT>
228.0

> <NUM_HB_ATOMS>
8  

> <NUM_ROTOR>
5  

> <XLOGP2>
-2.92

$$$$
