### 
### Created by X-TOOL on Fri Nov 18 16:27:54 2016
### 

@<TRIPOS>MOLECULE
3rv4_ligand
   39    41     1     0     0
SMALL
GAST_HUCK


@<TRIPOS>ATOM
      1 PB        -25.8210  -17.1690   16.6290 P.3       1 ADP         0.2069
      2 O1B       -26.2940  -18.5550   16.3250 O.co2     1 ADP        -0.5891
      3 O2B       -25.5960  -16.9540   18.0990 O.co2     1 ADP        -0.5891
      4 O3B       -24.7550  -16.6770   15.6670 O.co2     1 ADP        -0.5891
      5 PA        -27.2110  -14.7160   15.9790 P.3       1 ADP         0.3276
      6 O1A       -28.1620  -14.1030   16.9750 O.co2     1 ADP        -0.5556
      7 O2A       -25.8670  -14.0610   15.7880 O.co2     1 ADP        -0.5556
      8 O3A       -27.1350  -16.2750   16.3450 O.3       1 ADP        -0.1548
      9 O5'       -27.9360  -14.7840   14.5520 O.3       1 ADP        -0.2436
     10 C5'       -27.2840  -15.4650   13.4850 C.3       1 ADP         0.1132
     11 C4'       -27.9410  -15.1000   12.1690 C.3       1 ADP         0.1189
     12 O4'       -29.3320  -15.4300   12.2290 O.3       1 ADP        -0.3364
     13 C3'       -27.8880  -13.6110   11.8620 C.3       1 ADP         0.1149
     14 O3'       -26.6900  -13.2580   11.1790 O.3       1 ADP        -0.3864
     15 C2'       -29.1040  -13.4400   10.9840 C.3       1 ADP         0.1385
     16 O2'       -28.8070  -13.7880    9.6120 O.3       1 ADP        -0.3836
     17 C1'       -30.1040  -14.4330   11.5530 C.3       1 ADP         0.2010
     18 N9        -30.9360  -13.6530   12.5070 N.pl3     1 ADP        -0.1919
     19 C8        -30.7600  -13.5570   13.8340 C.2       1 ADP         0.1123
     20 N7        -31.6700  -12.7450   14.4060 N.2       1 ADP        -0.2958
     21 C5        -32.4450  -12.2800   13.4170 C.ar      1 ADP         0.1045
     22 C6        -33.5970  -11.3620   13.3300 C.ar      1 ADP         0.1298
     23 N6        -34.0910  -10.7560   14.4460 N.pl3     1 ADP        -0.3152
     24 N1        -34.1230  -11.1390   12.1050 N.ar      1 ADP        -0.2698
     25 C2        -33.6310  -11.7320   10.9940 C.ar      1 ADP         0.0533
     26 N3        -32.5810  -12.5760   11.0060 N.ar      1 ADP        -0.2714
     27 C4        -31.9540  -12.8740   12.1680 C.ar      1 ADP         0.1613
     28 H1        -27.3607  -16.5508   13.6432 H         1 ADP         0.0648
     29 H2        -26.2240  -15.1724   13.4580 H         1 ADP         0.0648
     30 H3        -27.4493  -15.6599   11.3598 H         1 ADP         0.0651
     31 H4        -27.9722  -13.0112   12.7802 H         1 ADP         0.0648
     32 H5        -26.6419  -13.7353   10.3590 H         1 ADP         0.2100
     33 H6        -29.4873  -12.4102   11.0355 H         1 ADP         0.0676
     34 H7        -28.5258  -14.6945    9.5702 H         1 ADP         0.2101
     35 H8        -30.7270  -14.8868   10.7682 H         1 ADP         0.0996
     36 H9        -29.9747  -14.0742   14.3832 H         1 ADP         0.1349
     37 H10       -34.8956  -10.1173   14.3718 H         1 ADP         0.1820
     38 H11       -33.6598  -10.9366   15.3638 H         1 ADP         0.1820
     39 H12       -34.1063  -11.5171   10.0438 H         1 ADP         0.0996
@<TRIPOS>BOND
     1    1    2 ar 
     2    1    3 ar 
     3    1    4 ar 
     4    8    1 1  
     5    5    6 ar 
     6    5    7 ar 
     7    5    8 1  
     8    5    9 1  
     9    9   10 1  
    10   10   11 1  
    11   11   12 1  
    12   11   13 1  
    13   12   17 1  
    14   13   14 1  
    15   13   15 1  
    16   15   16 1  
    17   15   17 1  
    18   17   18 1  
    19   18   19 1  
    20   18   27 1  
    21   19   20 2  
    22   20   21 1  
    23   21   22 ar 
    24   21   27 ar 
    25   22   23 1  
    26   22   24 ar 
    27   24   25 ar 
    28   25   26 ar 
    29   26   27 ar 
    30   10   28 1  
    31   10   29 1  
    32   11   30 1  
    33   13   31 1  
    34   14   32 1  
    35   15   33 1  
    36   16   34 1  
    37   17   35 1  
    38   19   36 1  
    39   23   37 1  
    40   23   38 1  
    41   25   39 1  
@<TRIPOS>SUBSTRUCTURE
     1 ADP         1

