### 
### Created by X-TOOL on Fri Nov 18 14:30:42 2016
### 

@<TRIPOS>MOLECULE
2fzg_ligand
   32    32     1     0     0
SMALL
GAST_HUCK


@<TRIPOS>ATOM
      1 OAF        39.6630   26.7050   20.5870 O.co2     1 EOB        -0.5606
      2 PAU        38.0620   26.6550   20.7670 P.3       1 EOB         0.0781
      3 OAE        37.5950   25.2270   20.1840 O.co2     1 EOB        -0.5606
      4 OAC        37.6260   26.8580   22.1750 O.co2     1 EOB        -0.5606
      5 CAM        37.4030   27.9190   19.6500 C.3       1 EOB         0.1142
      6 CAQ        37.3050   29.2890   20.3340 C.2       1 EOB         0.2198
      7 OAA        36.3640   29.5170   21.0980 O.2       1 EOB        -0.3834
      8 NAO        38.2480   30.1960   20.0820 N.am      1 EOB        -0.2362
      9 CAS        39.3050   30.0950   19.2740 C.ar      1 EOB         0.0521
     10 CAL        39.5790   28.9730   18.4990 C.ar      1 EOB        -0.0227
     11 CAJ        40.1540   31.2010   19.1800 C.ar      1 EOB        -0.0564
     12 CAI        41.2430   31.1810   18.3200 C.ar      1 EOB        -0.0882
     13 CAK        41.4990   30.0580   17.5410 C.ar      1 EOB        -0.0564
     14 CAT        40.6640   28.9430   17.6300 C.ar      1 EOB         0.0521
     15 NAP        40.8830   27.8270   16.9340 N.am      1 EOB        -0.2362
     16 CAR        41.8350   27.6080   16.0290 C.2       1 EOB         0.2198
     17 OAB        41.9730   26.5330   15.4440 O.2       1 EOB        -0.3834
     18 CAN        42.7920   28.7640   15.7210 C.3       1 EOB         0.1142
     19 PAV        44.3710   28.5490   16.5720 P.3       1 EOB         0.0781
     20 OAH        44.7920   30.0220   17.0630 O.co2     1 EOB        -0.5606
     21 OAG        45.4210   28.1190   15.4300 O.co2     1 EOB        -0.5606
     22 OAD        44.2920   27.5880   17.7010 O.co2     1 EOB        -0.5606
     23 H1         36.3993   27.6136   19.3193 H         1 EOB         0.0698
     24 H2         38.0668   28.0037   18.7770 H         1 EOB         0.0698
     25 H3         38.1506   31.0679   20.5620 H         1 EOB         0.2253
     26 H4         38.9340   28.1050   18.5740 H         1 EOB         0.0376
     27 H5         39.9606   32.0807   19.7831 H         1 EOB         0.0381
     28 H6         41.8962   32.0437   18.2553 H         1 EOB         0.0541
     29 H7         42.3464   30.0484   16.8651 H         1 EOB         0.0381
     30 H8         40.2596   27.0657   17.1124 H         1 EOB         0.2253
     31 H9         42.3326   29.7077   16.0502 H         1 EOB         0.0698
     32 H10        42.9713   28.8022   14.6364 H         1 EOB         0.0698
@<TRIPOS>BOND
     1    1    2 ar 
     2    2    3 ar 
     3    2    4 ar 
     4    2    5 1  
     5    5    6 1  
     6    6    7 2  
     7    6    8 am 
     8    8    9 1  
     9    9   10 ar 
    10    9   11 ar 
    11   10   14 ar 
    12   11   12 ar 
    13   12   13 ar 
    14   13   14 ar 
    15   14   15 1  
    16   15   16 am 
    17   16   17 2  
    18   16   18 1  
    19   18   19 1  
    20   19   20 ar 
    21   19   21 ar 
    22   19   22 ar 
    23    5   23 1  
    24    5   24 1  
    25    8   25 1  
    26   10   26 1  
    27   11   27 1  
    28   12   28 1  
    29   13   29 1  
    30   15   30 1  
    31   18   31 1  
    32   18   32 1  
@<TRIPOS>SUBSTRUCTURE
     1 EOB         1

