### 
### Created by X-TOOL on Fri Nov 18 12:11:52 2016
### 

@<TRIPOS>MOLECULE
2web_ligand
   70    72     1     0     0
SMALL
GAST_HUCK


@<TRIPOS>ATOM
      1 OI         18.2010    7.8270   19.5050 O.2       1 MOL        -0.3830
      2 C1         23.9110    5.6370   16.7200 C.ar      1 MOL        -0.0578
      3 C2         23.9160    4.2660   16.5030 C.ar      1 MOL        -0.0637
      4 C3         23.9520    3.3420   17.5730 C.ar      1 MOL        -0.0634
      5 C4         24.0190    3.7490   18.8890 C.ar      1 MOL        -0.0568
      6 C5         24.0780    5.1750   19.1690 C.ar      1 MOL        -0.0222
      7 C6         24.0170    6.1060   18.0910 C.ar      1 MOL        -0.0259
      8 C7         23.9750    7.4950   18.3910 C.ar      1 MOL        -0.0548
      9 C8         24.0780    7.9680   19.6840 C.ar      1 MOL        -0.0384
     10 C9         24.1390    7.0520   20.7600 C.ar      1 MOL        -0.0565
     11 C10        24.1430    5.6960   20.4930 C.ar      1 MOL        -0.0567
     12 C12        19.1540    7.1550   19.9500 C.2       1 MOL         0.1716
     13 C13        24.1310    9.4520   19.9380 C.3       1 MOL         0.0228
     14 C14        23.3180    9.9480   21.1430 C.3       1 MOL         0.1406
     15 NV         20.0120    7.0900   20.9680 N.am      1 MOL        -0.2670
     16 CAV        19.9990    8.1170   22.0240 C.3       1 MOL         0.1334
     17 CV         21.4120    8.7170   22.0390 C.2       1 MOL         0.2037
     18 OV         21.9940    8.3710   23.0640 O.2       1 MOL        -0.3944
     19 CBV        19.2910    7.9150   23.3820 C.3       1 MOL        -0.0061
     20 CV1        18.7630    9.2450   23.8980 C.3       1 MOL        -0.0584
     21 CV2        17.8670    7.5800   22.8920 C.3       1 MOL        -0.0584
     22 NL         21.9330    9.4890   21.0870 N.am      1 MOL        -0.2624
     23 P          23.3940   11.7670   21.2360 P.3       1 MOL         0.1520
     24 O          24.7780   12.1980   21.1850 O.co2     1 MOL        -0.6186
     25 OH         22.5240   12.3700   20.2390 O.co2     1 MOL        -0.6186
     26 CA         23.5560   13.0060   23.4940 C.3       1 MOL         0.2012
     27 CB         22.4910   13.9300   24.0690 C.3       1 MOL         0.0314
     28 CG         21.5050   13.2300   24.9470 C.ar      1 MOL        -0.0378
     29 CD1        20.4950   12.4600   24.3980 C.ar      1 MOL        -0.0601
     30 CD2        21.6130   13.3050   26.3250 C.ar      1 MOL        -0.0601
     31 CE1        19.5750   11.8200   25.2120 C.ar      1 MOL        -0.0686
     32 CE2        20.7040   12.6680   27.1500 C.ar      1 MOL        -0.0686
     33 CZ         19.6810   11.9290   26.5950 C.ar      1 MOL        -0.0687
     34 C          24.3280   12.3200   24.6100 C.2       1 MOL         0.2708
     35 CS         25.8280   12.6910   26.4180 C.3       1 MOL         0.0659
     36 OP         22.9560   12.0280   22.6990 O.3       1 MOL        -0.2508
     37 OS         24.7230   13.1570   25.5660 O.3       1 MOL        -0.2778
     38 OE         24.5800   11.1490   24.6340 O.2       1 MOL        -0.3668
     39 H1         23.8307    6.3345   15.8941 H         1 MOL         0.0603
     40 H2         23.8916    3.8933   15.4854 H         1 MOL         0.0611
     41 H3         23.9261    2.2811   17.3520 H         1 MOL         0.0598
     42 H4         24.0275    3.0240   19.6948 H         1 MOL         0.0619
     43 H5         23.8585    8.2045   17.5797 H         1 MOL         0.0531
     44 H6         24.1821    7.4095   21.7825 H         1 MOL         0.0586
     45 H7         24.1977    5.0018   21.3237 H         1 MOL         0.0620
     46 H8         19.3554    6.3321   19.2657 H         1 MOL         0.1545
     47 H9         25.1826    9.7300   20.1016 H         1 MOL         0.0467
     48 H10        23.7520    9.9627   19.0405 H         1 MOL         0.0467
     49 H11        23.7741    9.5366   22.0555 H         1 MOL         0.0810
     50 H12        20.6697    6.3382   21.0152 H         1 MOL         0.1892
     51 H13        19.3776    8.9120   21.5860 H         1 MOL         0.0805
     52 H14        19.8042    7.2528   24.0948 H         1 MOL         0.0343
     53 H15        18.2611    9.0901   24.8645 H         1 MOL         0.0235
     54 H16        18.0457    9.6602   23.1748 H         1 MOL         0.0235
     55 H17        19.6003    9.9464   24.0279 H         1 MOL         0.0235
     56 H18        17.8668    6.5882   22.4162 H         1 MOL         0.0235
     57 H19        17.5427    8.3367   22.1625 H         1 MOL         0.0235
     58 H20        17.1761    7.5761   23.7479 H         1 MOL         0.0235
     59 H21        21.3607    9.7615   20.3136 H         1 MOL         0.1873
     60 H22        24.2522   13.5982   22.8819 H         1 MOL         0.0945
     61 H23        21.9455   14.3944   23.2343 H         1 MOL         0.0482
     62 H24        22.9905   14.7114   24.6605 H         1 MOL         0.0482
     63 H25        20.4231   12.3567   23.3213 H         1 MOL         0.0557
     64 H26        22.4245   13.8731   26.7653 H         1 MOL         0.0557
     65 H27        18.7745   11.2358   24.7727 H         1 MOL         0.0599
     66 H28        20.7954   12.7493   28.2271 H         1 MOL         0.0599
     67 H29        18.9602   11.4335   27.2353 H         1 MOL         0.0559
     68 H30        26.0647   13.4622   27.1659 H         1 MOL         0.0577
     69 H31        26.7147   12.4990   25.7961 H         1 MOL         0.0577
     70 H32        25.5308   11.7635   26.9292 H         1 MOL         0.0577
@<TRIPOS>BOND
     1   12    1 2  
     2    2    3 ar 
     3    7    2 ar 
     4    3    4 ar 
     5    5    4 ar 
     6    6    5 ar 
     7    7    6 ar 
     8   11    6 ar 
     9    8    7 ar 
    10    9    8 ar 
    11    9   10 ar 
    12   10   11 ar 
    13   15   12 am 
    14   13   14 1  
    15   16   15 1  
    16   17   16 1  
    17   16   19 1  
    18   17   18 2  
    19   22   17 am 
    20   19   20 1  
    21   19   21 1  
    22   14   22 1  
    23   14   23 1  
    24   23   24 ar 
    25   23   25 ar 
    26   23   36 1  
    27   26   27 1  
    28   26   34 1  
    29   36   26 1  
    30   27   28 1  
    31   28   29 ar 
    32   28   30 ar 
    33   29   31 ar 
    34   30   32 ar 
    35   31   33 ar 
    36   32   33 ar 
    37   34   37 1  
    38   34   38 2  
    39   37   35 1  
    40   13    9 1  
    41    2   39 1  
    42    3   40 1  
    43    4   41 1  
    44    5   42 1  
    45    8   43 1  
    46   10   44 1  
    47   11   45 1  
    48   12   46 1  
    49   13   47 1  
    50   13   48 1  
    51   14   49 1  
    52   15   50 1  
    53   16   51 1  
    54   19   52 1  
    55   20   53 1  
    56   20   54 1  
    57   20   55 1  
    58   21   56 1  
    59   21   57 1  
    60   21   58 1  
    61   22   59 1  
    62   26   60 1  
    63   27   61 1  
    64   27   62 1  
    65   29   63 1  
    66   30   64 1  
    67   31   65 1  
    68   32   66 1  
    69   33   67 1  
    70   35   68 1  
    71   35   69 1  
    72   35   70 1  
@<TRIPOS>SUBSTRUCTURE
     1 MOL         1

