### 
### Created by X-TOOL on Fri Nov 18 15:17:12 2016
### 

@<TRIPOS>MOLECULE
3c2f_ligand
   30    30     1     0     0
SMALL
GAST_HUCK


@<TRIPOS>ATOM
      1 C1         26.5970  -14.9160   44.8780 C.3       1 PRP         0.2230
      2 C2         26.5310  -16.2310   44.1890 C.3       1 PRP         0.1392
      3 C3         27.1200  -15.8080   42.8930 C.3       1 PRP         0.1148
      4 C4         28.3290  -15.0710   43.3870 C.3       1 PRP         0.1181
      5 C5         28.9310  -14.1700   42.3660 C.3       1 PRP         0.1071
      6 O1         26.6820  -15.2160   46.2470 O.3       1 PRP        -0.2114
      7 O2         27.4640  -17.0060   44.9050 O.3       1 PRP        -0.3837
      8 O3         27.3920  -16.9790   42.1370 O.3       1 PRP        -0.3864
      9 O4         27.7660  -14.2910   44.3940 O.3       1 PRP        -0.3361
     10 O5         30.1340  -13.6660   42.8690 O.3       1 PRP        -0.2734
     11 P          30.7660  -12.3470   42.3340 P.3       1 PRP         0.2008
     12 O1P        29.8540  -11.2580   42.5240 O.co2     1 PRP        -0.5537
     13 O2P        31.8320  -12.2400   43.2740 O.co2     1 PRP        -0.5537
     14 O3P        31.1140  -12.7350   40.9880 O.co2     1 PRP        -0.5537
     15 PA         25.7910  -14.3490   47.2120 P.3       1 PRP         0.3301
     16 O1A        25.1360  -13.3750   46.3210 O.co2     1 PRP        -0.5555
     17 O2A        24.9390  -15.2630   47.9850 O.co2     1 PRP        -0.5555
     18 O3A        27.0470  -13.7300   48.3130 O.3       1 PRP        -0.1548
     19 PB         27.7510  -12.1520   47.8570 P.3       1 PRP         0.2069
     20 O1B        26.6800  -11.1230   47.8450 O.co2     1 PRP        -0.5891
     21 O2B        28.4720  -12.3180   46.6040 O.co2     1 PRP        -0.5891
     22 O3B        28.6610  -12.0220   49.0140 O.co2     1 PRP        -0.5891
     23 H1         25.7121  -14.2964   44.6705 H         1 PRP         0.0999
     24 H2         25.5354  -16.6928   44.1141 H         1 PRP         0.0675
     25 H3         26.4562  -15.1436   42.3203 H         1 PRP         0.0648
     26 H4         29.0923  -15.7639   43.7707 H         1 PRP         0.0650
     27 H5         28.2420  -13.3396   42.1523 H         1 PRP         0.0639
     28 H6         29.1234  -14.7340   41.4414 H         1 PRP         0.0639
     29 H7         28.2448  -16.4897   45.0672 H         1 PRP         0.2101
     30 H8         27.8836  -17.5921   42.6708 H         1 PRP         0.2100
@<TRIPOS>BOND
     1    1    2 1  
     2    1    6 1  
     3    1    9 1  
     4    2    3 1  
     5    2    7 1  
     6    3    4 1  
     7    3    8 1  
     8    4    5 1  
     9    4    9 1  
    10    5   10 1  
    11    6   15 1  
    12   10   11 1  
    13   11   12 ar 
    14   11   13 ar 
    15   11   14 ar 
    16   15   16 ar 
    17   15   17 ar 
    18   15   18 1  
    19   18   19 1  
    20   19   20 ar 
    21   19   21 ar 
    22   19   22 ar 
    23    1   23 1  
    24    2   24 1  
    25    3   25 1  
    26    4   26 1  
    27    5   27 1  
    28    5   28 1  
    29    7   29 1  
    30    8   30 1  
@<TRIPOS>SUBSTRUCTURE
     1 PRP         1

