### 
### Created by X-TOOL on Fri Nov 18 16:28:07 2016
### 

@<TRIPOS>MOLECULE
3tfu_ligand
   45    46     1     0     0
SMALL
GAST_HUCK


@<TRIPOS>ATOM
      1 CAA        22.7480  -11.5740  -28.0810 C.3       1 PL8        -0.0224
      2 OAB        17.7390   -7.4540  -28.9020 O.2       1 PL8        -0.3432
      3 OAC        22.8250   -3.7010  -28.0440 O.co2     1 PL8        -0.5536
      4 OAD        14.9470   -0.5170  -29.4340 O.3       1 PL8        -0.3948
      5 OAE        20.9320   -9.5620  -28.4480 O.3       1 PL8        -0.3348
      6 OAF        25.3190   -3.2460  -27.5440 O.co2     1 PL8        -0.5536
      7 OAG        23.6740   -3.6210  -25.6370 O.co2     1 PL8        -0.5536
      8 CAH        19.2750   -3.9740  -30.2740 C.2       1 PL8         0.0014
      9 CAI        20.1060   -4.9400  -29.7190 C.2       1 PL8         0.0115
     10 CAJ        24.8980   -8.6110  -28.1210 C.ar      1 PL8        -0.0131
     11 CAK        15.5180   -1.3430  -30.4600 C.3       1 PL8         0.0468
     12 CAL        16.4620   -2.3660  -29.8150 C.3       1 PL8        -0.0131
     13 CAM        17.0600   -3.2540  -30.9020 C.3       1 PL8         0.0130
     14 CAN        21.7920   -6.7870  -28.6130 C.3       1 PL8         0.0608
     15 CAO        24.3650   -6.2530  -28.3950 C.3       1 PL8         0.1104
     16 NAP        20.3580   -7.0720  -28.7200 N.2       1 PL8        -0.2780
     17 NAQ        17.3690   -5.4180  -29.8720 N.2       1 PL8        -0.2499
     18 NAR        24.4670   -9.9450  -28.0490 N.ar      1 PL8        -0.3257
     19 OAS        24.3970   -5.6120  -27.1140 O.3       1 PL8        -0.2651
     20 CAT        23.1660  -10.2450  -28.1560 C.ar      1 PL8         0.0389
     21 CAU        17.9050   -4.2080  -30.3440 C.2       1 PL8         0.0506
     22 CAV        23.9750   -7.5890  -28.3000 C.ar      1 PL8         0.0020
     23 CAW        22.2440   -9.2230  -28.3430 C.ar      1 PL8         0.1130
     24 CAX        19.5750   -6.1440  -29.2670 C.2       1 PL8         0.1393
     25 CAY        22.6310   -7.8860  -28.4210 C.ar      1 PL8         0.0200
     26 CAZ        18.2090   -6.3950  -29.3190 C.2       1 PL8         0.2378
     27 PBA        24.0180   -4.0330  -27.0270 P.3       1 PL8         0.2035
     28 H1         21.6543  -11.6210  -28.1892 H         1 PL8         0.0382
     29 H2         23.0386  -11.9954  -27.1074 H         1 PL8         0.0382
     30 H3         23.2214  -12.1534  -28.8874 H         1 PL8         0.0382
     31 H4         15.6416   -0.0636  -28.9709 H         1 PL8         0.2094
     32 H5         20.4121   -8.7767  -28.5722 H         1 PL8         0.2454
     33 H6         19.6926   -3.0416  -30.6510 H         1 PL8         0.0806
     34 H7         21.1759   -4.7540  -29.6377 H         1 PL8         0.0869
     35 H8         25.9533   -8.3782  -28.0367 H         1 PL8         0.0621
     36 H9         16.0819   -0.7159  -31.1662 H         1 PL8         0.0559
     37 H10        14.7158   -1.8700  -30.9973 H         1 PL8         0.0559
     38 H11        15.8998   -2.9864  -29.1015 H         1 PL8         0.0319
     39 H12        17.2693   -1.8387  -29.2857 H         1 PL8         0.0319
     40 H13        17.6326   -2.6303  -31.6042 H         1 PL8         0.0523
     41 H14        16.2473   -3.7622  -31.4416 H         1 PL8         0.0523
     42 H15        21.9349   -6.1044  -27.7624 H         1 PL8         0.0600
     43 H16        22.1038   -6.2863  -29.5414 H         1 PL8         0.0600
     44 H17        25.3696   -6.2070  -28.8406 H         1 PL8         0.0762
     45 H18        23.6523   -5.7199  -29.0414 H         1 PL8         0.0762
@<TRIPOS>BOND
     1   20    1 1  
     2   26    2 2  
     3   27    3 ar 
     4   11    4 1  
     5   23    5 1  
     6   27    6 ar 
     7   27    7 ar 
     8    9    8 2  
     9    8   21 1  
    10   24    9 1  
    11   10   18 ar 
    12   22   10 ar 
    13   12   11 1  
    14   13   12 1  
    15   21   13 1  
    16   14   16 1  
    17   25   14 1  
    18   15   19 1  
    19   22   15 1  
    20   16   24 2  
    21   21   17 2  
    22   17   26 1  
    23   18   20 ar 
    24   19   27 1  
    25   20   23 ar 
    26   22   25 ar 
    27   23   25 ar 
    28   24   26 1  
    29    1   28 1  
    30    1   29 1  
    31    1   30 1  
    32    4   31 1  
    33    5   32 1  
    34    8   33 1  
    35    9   34 1  
    36   10   35 1  
    37   11   36 1  
    38   11   37 1  
    39   12   38 1  
    40   12   39 1  
    41   13   40 1  
    42   13   41 1  
    43   14   42 1  
    44   14   43 1  
    45   15   44 1  
    46   15   45 1  
@<TRIPOS>SUBSTRUCTURE
     1 PL8         1

