### 
### Created by X-TOOL on Fri Nov 18 17:50:24 2016
### 

@<TRIPOS>MOLECULE
4qpl_ligand
   55    58     1     0     0
SMALL
GAST_HUCK


@<TRIPOS>ATOM
      1 N1         52.5290   14.8710   34.4630 N.ar      1 V3L        -0.2698
      2 C2         52.9040   15.0800   33.1840 C.ar      1 V3L         0.0533
      3 N3         53.3170   14.0750   32.3950 N.ar      1 V3L        -0.2714
      4 C4         53.3850   12.8010   32.8710 C.ar      1 V3L         0.1613
      5 C5         53.0310   12.5130   34.1730 C.ar      1 V3L         0.1045
      6 C6         52.5870   13.6290   35.0070 C.ar      1 V3L         0.1298
      7 N6         52.2210   13.3930   36.2720 N.pl3     1 V3L        -0.3152
      8 N7         53.1750   11.1860   34.3810 N.2       1 V3L        -0.2958
      9 C8         53.6240   10.6580   33.2240 C.2       1 V3L         0.1123
     10 N9         53.7210   11.6470   32.3070 N.pl3     1 V3L        -0.1919
     11 P          55.1230    6.9310   32.3350 P.3       1 V3L         0.2008
     12 PB         62.4850   12.4390   32.6960 P.3       1 V3L         0.2008
     13 C10        57.4840   12.7200   32.0670 C.3       1 V3L         0.1886
     14 C1'        54.2310   11.5250   30.9300 C.3       1 V3L         0.2013
     15 OP3        55.5390    7.2870   33.7280 O.co2     1 V3L        -0.5537
     16 O1B        61.9500   11.0680   33.0570 O.co2     1 V3L        -0.5537
     17 C12        57.9840   14.1640   32.1490 C.3       1 V3L         0.1341
     18 O12        56.9250   15.1250   32.2880 O.3       1 V3L        -0.3841
     19 C2'        55.7470   11.3500   31.0420 C.3       1 V3L         0.1450
     20 O2'        56.4240   12.6050   31.1260 O.3       1 V3L        -0.3373
     21 OP1        53.6550    6.6420   32.2150 O.co2     1 V3L        -0.5537
     22 O2B        63.6010   12.4520   31.6960 O.co2     1 V3L        -0.5537
     23 C13        58.8220   14.2890   30.8780 C.3       1 V3L         0.1144
     24 O13        58.0740   14.7780   29.7460 O.3       1 V3L        -0.3864
     25 C3'        56.0840   10.5430   29.8140 C.3       1 V3L         0.1153
     26 O3'        56.3740   11.4140   28.7140 O.3       1 V3L        -0.3864
     27 OP2        56.0240    5.9270   31.6700 O.co2     1 V3L        -0.5537
     28 O3B        62.7380   13.3520   33.8680 O.co2     1 V3L        -0.5537
     29 C14        59.2720   12.8500   30.5910 C.3       1 V3L         0.1177
     30 O14        58.6280   12.0230   31.5660 O.3       1 V3L        -0.3402
     31 C4'        54.8260    9.7300   29.5660 C.3       1 V3L         0.1182
     32 O4'        53.7440   10.3850   30.2400 O.3       1 V3L        -0.3364
     33 C15        60.7970   12.6920   30.6520 C.3       1 V3L         0.1071
     34 O15        61.2950   13.1850   31.9030 O.3       1 V3L        -0.2734
     35 C5'        54.9420    8.2980   30.0840 C.3       1 V3L         0.1072
     36 O5'        55.3140    8.2730   31.4660 O.3       1 V3L        -0.2734
     37 H          52.8710   16.0864   32.7825 H         1 V3L         0.0996
     38 H          52.2770   12.4384   36.6548 H         1 V3L         0.1820
     39 H          51.8832   14.1659   36.8631 H         1 V3L         0.1820
     40 H          53.8678    9.6100   33.0563 H         1 V3L         0.1349
     41 H          57.1674   12.3425   33.0505 H         1 V3L         0.0938
     42 H          53.9796   12.4334   30.3628 H         1 V3L         0.0996
     43 H          58.6391   14.2782   33.0252 H         1 V3L         0.0671
     44 H          56.3440   15.0649   31.5388 H         1 V3L         0.2101
     45 H          55.9956   10.7713   31.9438 H         1 V3L         0.0680
     46 H          59.6853   14.9475   31.0546 H         1 V3L         0.0648
     47 H          58.6464   14.8337   28.9898 H         1 V3L         0.2100
     48 H          56.9453    9.8838   29.9974 H         1 V3L         0.0648
     49 H          57.1137   11.9671   28.9360 H         1 V3L         0.2100
     50 H          58.9354   12.5597   29.5848 H         1 V3L         0.0650
     51 H          54.6261    9.6998   28.4848 H         1 V3L         0.0650
     52 H          61.2547   13.2606   29.8291 H         1 V3L         0.0639
     53 H          61.0566   11.6278   30.5513 H         1 V3L         0.0639
     54 H          55.7056    7.7657   29.4978 H         1 V3L         0.0639
     55 H          53.9714    7.7943   29.9652 H         1 V3L         0.0639
@<TRIPOS>BOND
     1    2    1 ar 
     2    6    1 ar 
     3    3    2 ar 
     4    4    3 ar 
     5    4    5 ar 
     6   10    4 1  
     7    5    6 ar 
     8    8    5 1  
     9    6    7 1  
    10    9    8 2  
    11   10    9 1  
    12   14   10 1  
    13   11   15 ar 
    14   11   21 ar 
    15   11   27 ar 
    16   36   11 1  
    17   12   16 ar 
    18   12   22 ar 
    19   12   28 ar 
    20   34   12 1  
    21   13   17 1  
    22   20   13 1  
    23   13   30 1  
    24   14   19 1  
    25   32   14 1  
    26   17   18 1  
    27   17   23 1  
    28   19   20 1  
    29   25   19 1  
    30   23   24 1  
    31   29   23 1  
    32   25   26 1  
    33   31   25 1  
    34   30   29 1  
    35   29   33 1  
    36   31   32 1  
    37   35   31 1  
    38   33   34 1  
    39   35   36 1  
    40    2   37 1  
    41    7   38 1  
    42    7   39 1  
    43    9   40 1  
    44   13   41 1  
    45   14   42 1  
    46   17   43 1  
    47   18   44 1  
    48   19   45 1  
    49   23   46 1  
    50   24   47 1  
    51   25   48 1  
    52   26   49 1  
    53   29   50 1  
    54   31   51 1  
    55   33   52 1  
    56   33   53 1  
    57   35   54 1  
    58   35   55 1  
@<TRIPOS>SUBSTRUCTURE
     1 V3L         1

