### 
### Created by X-TOOL on Mon Nov 21 14:22:06 2016
### 

@<TRIPOS>MOLECULE
5tmn_ligand
   64    64     1     0     0
SMALL
GAST_HUCK


@<TRIPOS>ATOM
      1 C          49.7310   17.9210   -8.9170 C.2       1 MOL         0.3229
      2 O          49.6240   16.7190   -9.0150 O.2       1 MOL        -0.3774
      3 OA         49.4360   18.7460   -9.8800 O.3       1 MOL        -0.2506
      4 CB         48.8800   18.2920  -11.1850 C.3       1 MOL         0.1113
      5 CG         47.5420   19.0400  -11.5680 C.ar      1 MOL        -0.0130
      6 CD1        46.4780   18.9750  -10.7030 C.ar      1 MOL        -0.0578
      7 CD2        47.3800   19.7700  -12.7250 C.ar      1 MOL        -0.0578
      8 CE1        45.2480   19.5850  -10.9620 C.ar      1 MOL        -0.0685
      9 CE2        46.1540   20.4140  -12.9580 C.ar      1 MOL        -0.0685
     10 CZ         45.1110   20.3000  -12.0940 C.ar      1 MOL        -0.0687
     11 N          50.1310   18.6280   -7.8860 N.am      1 MOL        -0.2448
     12 CA         50.4440   17.9780   -6.7000 C.3       1 MOL         0.1132
     13 P          51.7310   18.9700   -6.1030 P.3       1 MOL         0.0870
     14 O1P        53.0740   18.6410   -6.5730 O.co2     1 MOL        -0.6057
     15 O2P        51.5010   20.4720   -6.1370 O.co2     1 MOL        -0.6057
     16 N          51.7120   18.5170   -4.5090 N.am      1 MOL        -0.2736
     17 CA         52.8360   18.2290   -3.6390 C.3       1 MOL         0.1229
     18 C          53.5300   16.8860   -3.9040 C.2       1 MOL         0.1994
     19 O          54.7570   16.7750   -3.8340 O.2       1 MOL        -0.3949
     20 CB         52.4730   18.3230   -2.1310 C.3       1 MOL        -0.0136
     21 CG         53.7000   18.1610   -1.2410 C.3       1 MOL        -0.0429
     22 CD1        54.6320   19.3710   -1.4350 C.3       1 MOL        -0.0625
     23 CD2        53.2110   18.0830    0.2190 C.3       1 MOL        -0.0625
     24 N          52.7370   15.8850   -4.1940 N.am      1 MOL        -0.2698
     25 CA         53.2020   14.5210   -4.4530 C.3       1 MOL         0.0946
     26 C          52.3890   13.8360   -5.5240 C.2       1 MOL         0.0601
     27 O          51.3250   14.3630   -5.9430 O.co2     1 MOL        -0.5666
     28 CB         53.4490   13.6930   -3.1390 C.3       1 MOL        -0.0156
     29 CG         52.2500   13.4870   -2.2600 C.3       1 MOL        -0.0431
     30 CD1        52.3400   12.1690   -1.5350 C.3       1 MOL        -0.0625
     31 CD2        52.2510   14.5410   -1.1710 C.3       1 MOL        -0.0625
     32 OXT        52.7910   12.7660   -6.0710 O.co2     1 MOL        -0.5666
     33 H1         48.6755   17.2129  -11.1247 H         1 MOL         0.0776
     34 H2         49.6264   18.4805  -11.9708 H         1 MOL         0.0776
     35 H3         46.5976   18.4252   -9.7765 H         1 MOL         0.0557
     36 H4         48.1869   19.8462  -13.4449 H         1 MOL         0.0557
     37 H5         44.4224   19.4846  -10.2667 H         1 MOL         0.0599
     38 H6         46.0364   21.0179  -13.8505 H         1 MOL         0.0599
     39 H7         44.1678   20.7855  -12.3169 H         1 MOL         0.0559
     40 H8         50.2093   19.6226   -7.9540 H         1 MOL         0.1884
     41 H9         50.7810   16.9469   -6.8821 H         1 MOL         0.0743
     42 H10        49.5889   17.9675   -6.0081 H         1 MOL         0.0743
     43 H11        50.8069   18.4310   -4.0925 H         1 MOL         0.1669
     44 H12        53.5808   19.0130   -3.8402 H         1 MOL         0.0753
     45 H13        51.7505   17.5297   -1.8888 H         1 MOL         0.0311
     46 H14        52.0185   19.3053   -1.9349 H         1 MOL         0.0311
     47 H15        54.2376   17.2380   -1.5037 H         1 MOL         0.0298
     48 H16        55.5187   19.2573   -0.7940 H         1 MOL         0.0232
     49 H17        54.0978   20.2929   -1.1616 H         1 MOL         0.0232
     50 H18        54.9455   19.4273   -2.4879 H         1 MOL         0.0232
     51 H19        52.5476   17.2136    0.3375 H         1 MOL         0.0232
     52 H20        52.6604   19.0014    0.4709 H         1 MOL         0.0232
     53 H21        54.0760   17.9783    0.8903 H         1 MOL         0.0232
     54 H22        51.7541   16.0630   -4.2414 H         1 MOL         0.1875
     55 H23        54.2022   14.6370   -4.8958 H         1 MOL         0.0726
     56 H24        54.2139   14.2182   -2.5482 H         1 MOL         0.0308
     57 H25        53.8273   12.7022   -3.4308 H         1 MOL         0.0308
     58 H26        51.3299   13.5391   -2.8606 H         1 MOL         0.0297
     59 H27        51.4526   12.0396   -0.8981 H         1 MOL         0.0232
     60 H28        53.2450   12.1554   -0.9099 H         1 MOL         0.0232
     61 H29        52.3880   11.3500   -2.2677 H         1 MOL         0.0232
     62 H30        52.1869   15.5398   -1.6274 H         1 MOL         0.0232
     63 H31        53.1798   14.4638   -0.5868 H         1 MOL         0.0232
     64 H32        51.3870   14.3845   -0.5084 H         1 MOL         0.0232
@<TRIPOS>BOND
     1   16   17 1  
     2   17   20 1  
     3   17   18 1  
     4   18   19 2  
     5   20   21 1  
     6   21   22 1  
     7   21   23 1  
     8   24   25 1  
     9   25   28 1  
    10   25   26 1  
    11   26   27 ar 
    12   26   32 ar 
    13   28   29 1  
    14   29   30 1  
    15   29   31 1  
    16   18   24 am 
    17    1    2 2  
    18    1    3 1  
    19   11    1 am 
    20    3    4 1  
    21    4    5 1  
    22    5    6 ar 
    23    5    7 ar 
    24    6    8 ar 
    25    7    9 ar 
    26    8   10 ar 
    27    9   10 ar 
    28   12   11 1  
    29   13   12 1  
    30   13   14 ar 
    31   13   15 ar 
    32   13   16 am 
    33    4   33 1  
    34    4   34 1  
    35    6   35 1  
    36    7   36 1  
    37    8   37 1  
    38    9   38 1  
    39   10   39 1  
    40   11   40 1  
    41   12   41 1  
    42   12   42 1  
    43   16   43 1  
    44   17   44 1  
    45   20   45 1  
    46   20   46 1  
    47   21   47 1  
    48   22   48 1  
    49   22   49 1  
    50   22   50 1  
    51   23   51 1  
    52   23   52 1  
    53   23   53 1  
    54   24   54 1  
    55   25   55 1  
    56   28   56 1  
    57   28   57 1  
    58   29   58 1  
    59   30   59 1  
    60   30   60 1  
    61   30   61 1  
    62   31   62 1  
    63   31   63 1  
    64   31   64 1  
@<TRIPOS>SUBSTRUCTURE
     1 MOL         1

