### 
### Created by X-TOOL on Wed Dec 13 14:20:42 2017
### 

@<TRIPOS>MOLECULE
5lif_ligand
   71    72     1     0     0
SMALL
GAST_HUCK


@<TRIPOS>ATOM
      1 C1         17.3760   40.0210  -12.2730 C.ar      1 MOL        -0.0687
      2 C2         17.2710   40.6110  -11.0100 C.ar      1 MOL        -0.0685
      3 C3         16.0330   41.0300  -10.5350 C.ar      1 MOL        -0.0578
      4 C7         13.5420   41.3590  -10.7810 C.3       1 MOL         0.1113
      5 C9         12.5290   40.5960   -8.8510 C.2       1 MOL         0.3229
      6 C11        11.8920   39.8530   -6.6690 C.3       1 MOL         0.1132
      7 C14        10.0010   38.1790   -3.6600 C.3       1 MOL         0.1229
      8 C15         8.8000   39.0660   -3.8400 C.2       1 MOL         0.1994
      9 C21        10.3770   38.2050   -2.1550 C.3       1 MOL        -0.0136
     10 C22         9.2670   37.7340   -1.2080 C.3       1 MOL        -0.0429
     11 C24         9.5810   38.1300    0.2410 C.3       1 MOL        -0.0625
     12 C27         7.2790   43.3920   -2.4810 C.3       1 MOL        -0.0374
     13 C30         6.8630   46.0880   -1.3710 C.3       1 MOL        -0.0530
     14 C31         6.3410   44.8400   -0.6360 C.3       1 MOL        -0.0528
     15 C32         7.2980   43.6870   -0.9700 C.3       1 MOL        -0.0500
     16 C33         8.1170   42.1940   -5.2730 C.2       1 MOL         0.0601
     17 C4         14.8850   40.8800  -11.3150 C.ar      1 MOL        -0.0130
     18 P12        11.3840   38.2750   -5.9270 P.3       1 MOL         0.0870
     19 O20        10.0520   37.8400   -6.5190 O.co2     1 MOL        -0.6057
     20 O19        12.4620   37.2590   -6.1250 O.co2     1 MOL        -0.6057
     21 N13        11.1850   38.6450   -4.4140 N.am      1 MOL        -0.2736
     22 C23         9.1040   36.2120   -1.3190 C.3       1 MOL        -0.0625
     23 O25         7.6690   38.6080   -3.8150 O.2       1 MOL        -0.3949
     24 N16         9.0750   40.3660   -3.9690 N.am      1 MOL        -0.2698
     25 C17         8.0340   41.3760   -4.0320 C.3       1 MOL         0.0946
     26 O35         9.3280   42.3770   -5.7710 O.co2     1 MOL        -0.5666
     27 O34         7.1230   42.6500   -5.8060 O.co2     1 MOL        -0.5666
     28 C26         8.2410   42.2300   -2.7490 C.3       1 MOL        -0.0151
     29 C29         6.9110   45.8430   -2.8940 C.3       1 MOL        -0.0528
     30 C28         7.8020   44.6310   -3.2200 C.3       1 MOL        -0.0500
     31 C5         14.9790   40.3210  -12.5840 C.ar      1 MOL        -0.0578
     32 C6         16.2200   39.8860  -13.0550 C.ar      1 MOL        -0.0685
     33 O8         13.2090   40.2460   -9.9280 O.3       1 MOL        -0.2506
     34 O18        11.9260   41.6430   -8.7600 O.2       1 MOL        -0.3774
     35 N10        12.6060   39.6410   -7.9080 N.am      1 MOL        -0.2448
     36 H1         18.3346   39.6739  -12.6414 H         1 MOL         0.0559
     37 H2         18.1569   40.7422  -10.3993 H         1 MOL         0.0599
     38 H3         15.9587   41.4771   -9.5503 H         1 MOL         0.0557
     39 H4         12.8050   41.4924  -11.5866 H         1 MOL         0.0776
     40 H5         13.6378   42.2960  -10.2128 H         1 MOL         0.0776
     41 H6         12.5465   40.3869   -5.9643 H         1 MOL         0.0743
     42 H7         10.9969   40.4600   -6.8699 H         1 MOL         0.0743
     43 H8          9.7477   37.1562   -3.9758 H         1 MOL         0.0753
     44 H9         10.6411   39.2383   -1.8858 H         1 MOL         0.0311
     45 H10        11.2510   37.5532   -2.0091 H         1 MOL         0.0311
     46 H11         8.3231   38.2140   -1.5055 H         1 MOL         0.0298
     47 H12         8.7718   37.7818    0.8998 H         1 MOL         0.0232
     48 H13         9.6661   39.2244    0.3118 H         1 MOL         0.0232
     49 H14        10.5300   37.6676    0.5501 H         1 MOL         0.0232
     50 H15         6.2619   43.1406   -2.8160 H         1 MOL         0.0303
     51 H16         7.8756   46.3223   -1.0108 H         1 MOL         0.0265
     52 H17         6.1943   46.9361   -1.1625 H         1 MOL         0.0265
     53 H18         5.3242   44.5978   -0.9787 H         1 MOL         0.0265
     54 H19         6.3294   45.0184    0.4494 H         1 MOL         0.0265
     55 H20         8.3187   43.9646   -0.6680 H         1 MOL         0.0268
     56 H21         6.9853   42.7864   -0.4212 H         1 MOL         0.0268
     57 H22        11.8716   39.2061   -3.9517 H         1 MOL         0.1669
     58 H23         8.8795   35.9424   -2.3615 H         1 MOL         0.0232
     59 H24         8.2793   35.8832   -0.6696 H         1 MOL         0.0232
     60 H25        10.0363   35.7195   -1.0056 H         1 MOL         0.0232
     61 H26        10.0310   40.6540   -4.0241 H         1 MOL         0.1875
     62 H27         7.0457   40.8940   -4.0025 H         1 MOL         0.0726
     63 H28         8.1723   41.5468   -1.8897 H         1 MOL         0.0308
     64 H29         9.2550   42.6533   -2.8008 H         1 MOL         0.0308
     65 H30         7.3188   46.7355   -3.3911 H         1 MOL         0.0265
     66 H31         5.8921   45.6518   -3.2617 H         1 MOL         0.0265
     67 H32         7.7842   44.4450   -4.3040 H         1 MOL         0.0268
     68 H33         8.8338   44.8391   -2.9005 H         1 MOL         0.0268
     69 H34        14.0952   40.2233  -13.2040 H         1 MOL         0.0557
     70 H35        16.2904   39.4375  -14.0394 H         1 MOL         0.0599
     71 H36        13.1407   38.8096   -8.0589 H         1 MOL         0.1884
@<TRIPOS>BOND
     1    2    1 ar 
     2    1   32 ar 
     3    3    2 ar 
     4   17    3 ar 
     5    4   17 1  
     6   33    4 1  
     7    5   33 1  
     8    5   34 2  
     9   35    5 am 
    10   18    6 1  
    11    6   35 1  
    12    8    7 1  
    13    7    9 1  
    14    7   21 1  
    15    8   23 2  
    16   24    8 am 
    17    9   10 1  
    18   10   11 1  
    19   10   22 1  
    20   12   15 1  
    21   28   12 1  
    22   12   30 1  
    23   14   13 1  
    24   13   29 1  
    25   15   14 1  
    26   25   16 1  
    27   16   26 ar 
    28   16   27 ar 
    29   17   31 ar 
    30   18   19 ar 
    31   18   20 ar 
    32   21   18 am 
    33   25   24 1  
    34   25   28 1  
    35   29   30 1  
    36   31   32 ar 
    37    1   36 1  
    38    2   37 1  
    39    3   38 1  
    40    4   39 1  
    41    4   40 1  
    42    6   41 1  
    43    6   42 1  
    44    7   43 1  
    45    9   44 1  
    46    9   45 1  
    47   10   46 1  
    48   11   47 1  
    49   11   48 1  
    50   11   49 1  
    51   12   50 1  
    52   13   51 1  
    53   13   52 1  
    54   14   53 1  
    55   14   54 1  
    56   15   55 1  
    57   15   56 1  
    58   21   57 1  
    59   22   58 1  
    60   22   59 1  
    61   22   60 1  
    62   24   61 1  
    63   25   62 1  
    64   28   63 1  
    65   28   64 1  
    66   29   65 1  
    67   29   66 1  
    68   30   67 1  
    69   30   68 1  
    70   31   69 1  
    71   32   70 1  
    72   35   71 1  
@<TRIPOS>SUBSTRUCTURE
     1 MOL         1

