### 
### Created by X-TOOL on Fri Nov 18 16:59:47 2016
### 

@<TRIPOS>MOLECULE
4arw_ligand
   44    45     1     0     0
SMALL
GAST_HUCK


@<TRIPOS>ATOM
      1 CAW        37.7780    7.8440   12.3900 C.3       1 HNR        -0.0652
      2 CAX        38.6000    6.6560   11.8400 C.3       1 HNR        -0.0535
      3 CAV        37.9530    6.0190   10.6220 C.3       1 HNR        -0.0258
      4 CAU        38.8280    4.9440    9.9880 C.3       1 HNR         0.0685
      5 NAQ        38.0670    3.6980   10.0090 N.am      1 HNR        -0.1627
      6 CAR        37.0950    3.4440    9.0190 C.2       1 HNR         0.1602
      7 NAS        36.8890    4.3580    8.0690 N.2       1 HNR        -0.3926
      8 CAP        38.3210    2.7720   11.0270 C.2       1 HNR         0.3352
      9 OAO        39.1730    2.9960   11.8850 O.2       1 HNR        -0.3762
     10 NAG        37.6040    1.6060   11.0740 N.am      1 HNR        -0.1728
     11 CAH        36.6290    1.3410   10.1230 C.2       1 HNR         0.2502
     12 OAA        36.0240    0.2750   10.2440 O.2       1 HNR        -0.3802
     13 CAI        36.3550    2.2530    9.0800 C.3       1 HNR         0.2172
     14 NAJ        35.4230    1.9550    8.1690 N.am      1 HNR        -0.1936
     15 CAB        35.7470    0.9150    7.1670 C.3       1 HNR         0.0244
     16 SAK        33.8990    2.5790    8.2590 S.o2      1 HNR         0.0751
     17 OAT        33.9420    4.0020    8.4390 O.2       1 HNR        -0.1498
     18 OAC        33.0650    2.2200    7.0750 O.2       1 HNR        -0.1498
     19 CAL        33.1570    1.8500    9.6770 C.ar      1 HNR         0.1087
     20 CAM        33.4520    2.3140   10.9400 C.ar      1 HNR        -0.0351
     21 CAN        32.8430    1.7320   12.0490 C.ar      1 HNR        -0.0599
     22 CAF        31.9490    0.6780   11.9070 C.ar      1 HNR        -0.0616
     23 CAE        31.6800    0.2120   10.6400 C.ar      1 HNR        -0.0599
     24 CAD        32.2680    0.7990    9.5340 C.ar      1 HNR        -0.0351
     25 H1         38.2881    8.2676   13.2677 H         1 HNR         0.0230
     26 H2         36.7769    7.4935   12.6814 H         1 HNR         0.0230
     27 H3         37.6842    8.6163   11.6123 H         1 HNR         0.0230
     28 H4         38.6930    5.8953   12.6291 H         1 HNR         0.0263
     29 H5         39.6002    7.0180   11.5599 H         1 HNR         0.0263
     30 H6         37.7610    6.8029    9.8746 H         1 HNR         0.0291
     31 H7         37.0000    5.5625   10.9276 H         1 HNR         0.0291
     32 H8         39.7578    4.8271   10.5640 H         1 HNR         0.0609
     33 H9         39.0711    5.2193    8.9511 H         1 HNR         0.0609
     34 H10        36.1985    4.1941    7.3531 H         1 HNR         0.0533
     35 H11        37.7844    0.9410   11.7987 H         1 HNR         0.2272
     36 H12        35.5934    2.7516    9.6974 H         1 HNR         0.1053
     37 H13        36.8048    0.6292    7.2641 H         1 HNR         0.0446
     38 H14        35.5652    1.3100    6.1566 H         1 HNR         0.0446
     39 H15        35.1119    0.0328    7.3356 H         1 HNR         0.0446
     40 H16        34.1552    3.1287   11.0701 H         1 HNR         0.0637
     41 H17        33.0704    2.1078   13.0400 H         1 HNR         0.0618
     42 H18        31.4743    0.2329   12.7739 H         1 HNR         0.0618
     43 H19        31.0011   -0.6227   10.5077 H         1 HNR         0.0618
     44 H20        32.0294    0.4311    8.5426 H         1 HNR         0.0637
@<TRIPOS>BOND
     1    1    2 1  
     2    2    3 1  
     3    3    4 1  
     4    4    5 1  
     5    5    6 1  
     6    5    8 am 
     7    6    7 2  
     8    6   13 1  
     9    8    9 2  
    10    8   10 am 
    11   10   11 am 
    12   11   12 2  
    13   11   13 1  
    14   13   14 1  
    15   14   15 1  
    16   14   16 am 
    17   16   17 2  
    18   16   18 2  
    19   16   19 1  
    20   19   20 ar 
    21   19   24 ar 
    22   20   21 ar 
    23   21   22 ar 
    24   22   23 ar 
    25   23   24 ar 
    26    1   25 1  
    27    1   26 1  
    28    1   27 1  
    29    2   28 1  
    30    2   29 1  
    31    3   30 1  
    32    3   31 1  
    33    4   32 1  
    34    4   33 1  
    35    7   34 1  
    36   10   35 1  
    37   13   36 1  
    38   15   37 1  
    39   15   38 1  
    40   15   39 1  
    41   20   40 1  
    42   21   41 1  
    43   22   42 1  
    44   23   43 1  
    45   24   44 1  
@<TRIPOS>SUBSTRUCTURE
     1 HNR         1

