### 
### Created by X-TOOL on Fri Nov 18 17:19:55 2016
### 

@<TRIPOS>MOLECULE
4bps_ligand
   22    22     1     0     0
SMALL
GAST_HUCK


@<TRIPOS>ATOM
      1 C          54.8700    6.3800    4.1760 C.2       1 3EB         0.0367
      2 O          53.8910    5.6280    4.2290 O.co2     1 3EB        -0.5688
      3 CA         56.2770    5.8550    4.1140 C.3       1 3EB         0.0099
      4 OAB        54.6080    2.2400    9.2550 O.co2     1 3EB        -0.5607
      5 OAD        55.3610    3.3920   10.9950 O.co2     1 3EB        -0.5607
      6 CAE        56.7820    6.2290    7.0950 C.ar      1 3EB        -0.0577
      7 CAF        56.7080    6.4670    8.4620 C.ar      1 3EB        -0.0650
      8 CAG        56.3820    5.0010    6.5670 C.ar      1 3EB        -0.0379
      9 CAH        56.2470    5.4840    9.3210 C.ar      1 3EB        -0.0546
     10 CAL        55.2380    3.2090    9.7250 C.2       1 3EB         0.0613
     11 CAM        55.9010    4.0290    7.4450 C.ar      1 3EB        -0.0462
     12 CAN        55.8110    4.2630    8.8170 C.ar      1 3EB         0.0035
     13 OXT        54.7510    7.6630    4.1100 O.co2     1 3EB        -0.5688
     14 C2         56.5020    4.6780    5.0860 C.3       1 3EB        -0.0070
     15 H1         56.9705    6.6679    4.3752 H         1 3EB         0.0453
     16 H2         56.4827    5.5126    3.0891 H         1 3EB         0.0453
     17 H3         57.1534    7.0034    6.4336 H         1 3EB         0.0578
     18 H4         57.0132    7.4286    8.8584 H         1 3EB         0.0606
     19 H5         56.2258    5.6663   10.3893 H         1 3EB         0.0593
     20 H6         55.5896    3.0683    7.0510 H         1 3EB         0.0589
     21 H7         57.5138    4.2845    4.9088 H         1 3EB         0.0444
     22 H8         55.7599    3.9010    4.8504 H         1 3EB         0.0444
@<TRIPOS>BOND
     1    1    2 ar 
     2    3    1 1  
     3    1   13 ar 
     4   14    3 1  
     5   10    4 ar 
     6   10    5 ar 
     7    7    6 ar 
     8    6    8 ar 
     9    9    7 ar 
    10    8   11 ar 
    11    8   14 1  
    12   12    9 ar 
    13   10   12 1  
    14   11   12 ar 
    15    3   15 1  
    16    3   16 1  
    17    6   17 1  
    18    7   18 1  
    19    9   19 1  
    20   11   20 1  
    21   14   21 1  
    22   14   22 1  
@<TRIPOS>SUBSTRUCTURE
     1 3EB         1

