### 
### Created by X-TOOL on Fri Nov 18 15:11:53 2016
### 

@<TRIPOS>MOLECULE
3c39_ligand
   15    14     1     0     0
SMALL
GAST_HUCK


@<TRIPOS>ATOM
      1 C1          7.0990    6.9610   22.5320 C.2       1 3PG         0.0659
      2 O1          6.5580    5.8840   22.8020 O.co2     1 3PG        -0.5663
      3 O2          8.2340    7.2520   22.9320 O.co2     1 3PG        -0.5663
      4 C2          6.3640    7.8740   21.5600 C.3       1 3PG         0.1348
      5 O3          7.2390    8.8830   21.0690 O.3       1 3PG        -0.3751
      6 C3          5.0910    8.4480   22.1830 C.3       1 3PG         0.1159
      7 O1P         5.3880    9.4180   23.1990 O.3       1 3PG        -0.2718
      8 P           4.3410    9.6760   24.4140 P.3       1 3PG         0.2009
      9 O2P         4.3050    8.4150   25.1820 O.co2     1 3PG        -0.5537
     10 O3P         3.0230    9.9590   23.7070 O.co2     1 3PG        -0.5537
     11 O4P         5.0570   10.7630   25.1730 O.co2     1 3PG        -0.5537
     12 H1          6.0550    7.2621   20.6997 H         1 3PG         0.0790
     13 H2          7.9697    8.4754   20.6191 H         1 3PG         0.2125
     14 H3          4.5124    7.6273   22.6320 H         1 3PG         0.0657
     15 H4          4.4938    8.9292   21.3945 H         1 3PG         0.0657
@<TRIPOS>BOND
     1    1    2 ar 
     2    1    3 ar 
     3    1    4 1  
     4    4    5 1  
     5    4    6 1  
     6    6    7 1  
     7    7    8 1  
     8    8    9 ar 
     9    8   10 ar 
    10    8   11 ar 
    11    4   12 1  
    12    5   13 1  
    13    6   14 1  
    14    6   15 1  
@<TRIPOS>SUBSTRUCTURE
     1 3PG         1

