### 
### Created by X-TOOL on Fri Nov 18 18:03:26 2016
### 

@<TRIPOS>MOLECULE
5bv3_ligand
   45    47     1     0     0
SMALL
GAST_HUCK


@<TRIPOS>ATOM
      1 PA         43.2580    5.5180   31.9310 P.3       1 M7G         0.3276
      2 O1A        44.7110    5.7820   31.8700 O.co2     1 M7G        -0.5556
      3 O2A        42.3460    6.5110   32.5410 O.co2     1 M7G        -0.5556
      4 O3A        43.1480    4.0530   32.5980 O.3       1 M7G        -0.1548
      5 O5'        42.6550    5.1890   30.4920 O.3       1 M7G        -0.2436
      6 PB         42.2330    3.6760   33.8530 P.3       1 M7G         0.2069
      7 O1B        40.7760    3.8110   33.6010 O.co2     1 M7G        -0.5891
      8 O2B        42.7480    4.6480   35.0060 O.co2     1 M7G        -0.5891
      9 O3B        42.6130    2.2230   34.1950 O.co2     1 M7G        -0.5891
     10 C5'        43.1350    4.0560   29.7910 C.3       1 M7G         0.1131
     11 C4'        42.0020    3.3360   29.0870 C.3       1 M7G         0.1169
     12 O4'        42.7030    2.4550   28.1830 O.3       1 M7G        -0.3529
     13 C3'        41.2630    2.4580   30.0950 C.3       1 M7G         0.1129
     14 O3'        39.8490    2.6200   29.8870 O.3       1 M7G        -0.3865
     15 C2'        41.7100    1.0260   29.7580 C.3       1 M7G         0.1208
     16 O2'        40.5900    0.1540   29.7960 O.3       1 M7G        -0.3857
     17 C1'        42.1290    1.1390   28.3060 C.3       1 M7G         0.1656
     18 N9         43.1710    0.1910   27.9020 N.2       1 M7G        -0.1577
     19 C8         44.3220   -0.0710   28.7450 C.2       1 M7G         0.2318
     20 N7         45.1820   -0.8130   27.8280 N.pl3     1 M7G        -0.0547
     21 CM7        46.5160   -1.3090   28.2640 C.3       1 M7G         0.0996
     22 C5         44.5770   -0.9850   26.6410 C.2       1 M7G         0.4523
     23 C6         44.9780   -1.6350   25.4740 C.2       1 M7G         0.4098
     24 O6         46.0480   -2.2120   25.2820 O.2       1 M7G        -0.2762
     25 N1         44.0220   -1.5830   24.4440 N.am      1 M7G        -0.2152
     26 C2         42.8030   -0.9610   24.5780 C.cat     1 M7G         0.2333
     27 N2         41.9820   -0.9870   23.5320 N.pl3     1 M7G        -0.3251
     28 N3         42.4120   -0.3380   25.6990 N.pl3     1 M7G        -0.1473
     29 C4         43.3220   -0.3890   26.6790 C.2       1 M7G         0.4104
     30 H1         43.6120    3.3670   30.5035 H         1 M7G         0.0648
     31 H2         43.8744    4.3810   29.0442 H         1 M7G         0.0648
     32 H3         41.3181    4.0260   28.5711 H         1 M7G         0.0650
     33 H4         41.5277    2.7203   31.1299 H         1 M7G         0.0647
     34 H5         39.6280    2.3560   29.0016 H         1 M7G         0.2100
     35 H6         42.5202    0.6740   30.4135 H         1 M7G         0.0655
     36 H7         39.9449    0.4411   29.1604 H         1 M7G         0.2100
     37 H8         41.2510    1.0206   27.6541 H         1 M7G         0.0758
     38 H9         44.4973    0.2101   29.7824 H         1 M7G         0.2243
     39 H10        46.7057   -0.9890   29.2992 H         1 M7G         0.0658
     40 H11        47.2939   -0.8969   27.6045 H         1 M7G         0.0658
     41 H12        46.5342   -2.4075   28.2106 H         1 M7G         0.0658
     42 H13        44.2394   -2.0199   23.5711 H         1 M7G         0.1858
     43 H14        41.0592   -0.5331   23.5902 H         1 M7G         0.1812
     44 H15        42.2689   -1.4610   22.6637 H         1 M7G         0.1812
     45 H16        41.5013    0.1333   25.7963 H         1 M7G         0.2869
@<TRIPOS>BOND
     1    1    2 ar 
     2    1    3 ar 
     3    1    4 1  
     4    1    5 1  
     5    4    6 1  
     6    5   10 1  
     7    6    7 ar 
     8    6    8 ar 
     9    6    9 ar 
    10   10   11 1  
    11   11   12 1  
    12   11   13 1  
    13   12   17 1  
    14   13   14 1  
    15   13   15 1  
    16   15   16 1  
    17   15   17 1  
    18   17   18 1  
    19   18   19 2  
    20   18   29 1  
    21   19   20 1  
    22   20   21 1  
    23   20   22 1  
    24   22   23 1  
    25   22   29 2  
    26   23   24 2  
    27   23   25 am 
    28   25   26 ar 
    29   26   27 ar 
    30   26   28 ar 
    31   28   29 1  
    32   10   30 1  
    33   10   31 1  
    34   11   32 1  
    35   13   33 1  
    36   14   34 1  
    37   15   35 1  
    38   16   36 1  
    39   17   37 1  
    40   19   38 1  
    41   21   39 1  
    42   21   40 1  
    43   21   41 1  
    44   25   42 1  
    45   27   43 1  
    46   27   44 1  
    47   28   45 1  
@<TRIPOS>SUBSTRUCTURE
     1 M7G         1

