### 
### Created by X-TOOL on Fri Nov 18 15:11:00 2016
### 

@<TRIPOS>MOLECULE
3f6e_ligand
   59    61     1     0     0
SMALL
GAST_HUCK


@<TRIPOS>ATOM
      1 C1I        64.4320   57.7560  157.5260 C.ar      1 MOL        -0.0347
      2 C1G        63.9260   59.0520  157.4030 C.ar      1 MOL        -0.0331
      3 C1H        64.2370   60.0260  158.3710 C.ar      1 MOL         0.0119
      4 N1K        65.0040   59.7110  159.4230 N.ar      1 MOL        -0.2946
      5 C1J        65.5210   58.4760  159.5680 C.ar      1 MOL         0.0198
      6 C1N        65.2530   57.4720  158.6260 C.ar      1 MOL         0.0046
      7 C1F        65.8230   56.2120  158.7890 C.2       1 MOL        -0.0305
      8 C1E        65.1030   55.0590  158.9690 C.2       1 MOL         0.0044
      9 C1M        65.7620   53.8200  159.1380 C.3       1 MOL         0.1886
     10 O1D        65.5950   52.8290  158.1540 O.3       1 MOL        -0.3419
     11 C1Q        66.4820   53.4590  160.4850 C.2       1 MOL         0.1912
     12 S1         65.9630   54.2980  162.0240 S.3       1 MOL         0.0998
     13 C5         66.4580   52.8900  163.0010 C.2       1 MOL         0.1380
     14 C6         66.2640   52.9320  164.4500 C.3       1 MOL         0.0667
     15 C7         67.2580   53.8180  165.2560 C.3       1 MOL         0.1086
     16 O7         66.8430   53.6320  166.6480 O.3       1 MOL        -0.2412
     17 P1A        67.4140   54.6360  167.7020 P.3       1 MOL         0.3279
     18 O2A        67.2470   53.9400  168.9950 O.co2     1 MOL        -0.5556
     19 O1A        68.7840   55.1650  167.4130 O.co2     1 MOL        -0.5556
     20 O3A        66.5800   55.8650  167.6330 O.3       1 MOL        -0.1548
     21 P1B        64.8450   56.0590  167.7980 P.3       1 MOL         0.2069
     22 O2B        64.2240   55.7100  166.4380 O.co2     1 MOL        -0.5891
     23 O1B        64.4580   55.0980  168.9060 O.co2     1 MOL        -0.5891
     24 O3B        64.6480   57.4570  168.1550 O.co2     1 MOL        -0.5891
     25 C4         66.8630   51.8840  162.1600 C.2       1 MOL         0.0920
     26 C4M        67.3700   50.5200  162.7110 C.3       1 MOL         0.0051
     27 N3         66.8900   52.1940  160.8490 N.2       1 MOL        -0.2889
     28 C7S        67.4540   51.2040  159.8520 C.3       1 MOL         0.0492
     29 C5S        69.0080   51.2820  159.6610 C.ar      1 MOL         0.0314
     30 C6S        69.7020   50.1070  159.8180 C.ar      1 MOL         0.0073
     31 N1S        71.0470   50.0890  159.6520 N.ar      1 MOL        -0.2938
     32 C2S        71.5800   51.2490  159.2670 C.ar      1 MOL         0.0758
     33 C2M        73.1190   51.1910  159.0170 C.3       1 MOL        -0.0029
     34 N3S        70.9520   52.4060  159.0330 N.ar      1 MOL        -0.2610
     35 C4S        69.6030   52.4590  159.1820 C.ar      1 MOL         0.1222
     36 N4S        69.0630   53.5930  158.9120 N.pl3     1 MOL        -0.3187
     37 H1         64.1969   56.9929  156.7929 H         1 MOL         0.0744
     38 H2         63.2930   59.3083  156.5612 H         1 MOL         0.0710
     39 H3         63.8543   61.0346  158.2645 H         1 MOL         0.0828
     40 H4         66.1511   58.2555  160.4220 H         1 MOL         0.0841
     41 H5         66.9093   56.1376  158.7725 H         1 MOL         0.0616
     42 H6         64.0148   55.0982  158.9819 H         1 MOL         0.0940
     43 H7         66.6921   54.1944  158.6856 H         1 MOL         0.1253
     44 H8         65.9071   53.1576  157.3190 H         1 MOL         0.2224
     45 H9         66.3499   51.9030  164.8291 H         1 MOL         0.0691
     46 H10        65.2487   53.3096  164.6409 H         1 MOL         0.0691
     47 H11        67.1713   54.8736  164.9591 H         1 MOL         0.0675
     48 H12        68.2939   53.4792  165.1075 H         1 MOL         0.0675
     49 H13        67.2481   50.4980  163.8040 H         1 MOL         0.0511
     50 H14        68.4331   50.3947  162.4580 H         1 MOL         0.0511
     51 H15        66.7871   49.7031  162.2606 H         1 MOL         0.0511
     52 H16        66.9790   51.3904  158.8775 H         1 MOL         0.0548
     53 H17        67.2012   50.1900  160.1952 H         1 MOL         0.0548
     54 H18        69.1746   49.1953  160.0743 H         1 MOL         0.0791
     55 H19        73.4908   50.1826  159.2514 H         1 MOL         0.0449
     56 H20        73.6231   51.9265  159.6611 H         1 MOL         0.0449
     57 H21        73.3282   51.4229  157.9623 H         1 MOL         0.0449
     58 H22        69.6430   54.3697  158.5637 H         1 MOL         0.1789
     59 H23        68.0501   53.7255  159.0438 H         1 MOL         0.1789
@<TRIPOS>BOND
     1    1    2 ar 
     2    1    6 ar 
     3    2    3 ar 
     4    3    4 ar 
     5    4    5 ar 
     6    5    6 ar 
     7    6    7 1  
     8    7    8 2  
     9    8    9 1  
    10    9   10 1  
    11    9   11 1  
    12   11   12 1  
    13   11   27 2  
    14   12   13 1  
    15   13   14 1  
    16   13   25 2  
    17   14   15 1  
    18   15   16 1  
    19   16   17 1  
    20   17   18 ar 
    21   17   19 ar 
    22   17   20 1  
    23   20   21 1  
    24   21   22 ar 
    25   21   23 ar 
    26   21   24 ar 
    27   25   26 1  
    28   25   27 1  
    29   27   28 1  
    30   28   29 1  
    31   29   30 ar 
    32   29   35 ar 
    33   30   31 ar 
    34   31   32 ar 
    35   32   33 1  
    36   32   34 ar 
    37   34   35 ar 
    38   35   36 1  
    39    1   37 1  
    40    2   38 1  
    41    3   39 1  
    42    5   40 1  
    43    7   41 1  
    44    8   42 1  
    45    9   43 1  
    46   10   44 1  
    47   14   45 1  
    48   14   46 1  
    49   15   47 1  
    50   15   48 1  
    51   26   49 1  
    52   26   50 1  
    53   26   51 1  
    54   28   52 1  
    55   28   53 1  
    56   30   54 1  
    57   33   55 1  
    58   33   56 1  
    59   33   57 1  
    60   36   58 1  
    61   36   59 1  
@<TRIPOS>SUBSTRUCTURE
     1 MOL         1

