### 
### Created by X-TOOL on Fri Nov 18 12:29:41 2016
### 

@<TRIPOS>MOLECULE
1bzc_ligand
   43    44     1     0     0
SMALL
GAST_HUCK


@<TRIPOS>ATOM
      1 P         -20.5280   58.4430   12.0690 P.3       1 TPI         0.0978
      2 O1        -20.4410   56.9790   11.4600 O.co2     1 TPI        -0.5666
      3 O2        -21.3340   59.3230   11.1980 O.co2     1 TPI        -0.5666
      4 O3        -19.0690   59.0410   12.2460 O.co2     1 TPI        -0.5666
      5 C1        -21.3330   58.3720   13.6690 C.3       1 TPI         0.2962
      6 C2        -20.8740   56.1310   14.8470 C.ar      1 TPI        -0.0135
      7 C3        -20.6170   57.5140   14.7150 C.ar      1 TPI         0.0299
      8 C4        -19.7250   58.1450   15.6010 C.ar      1 TPI        -0.0438
      9 C5        -19.1000   57.4250   16.6180 C.ar      1 TPI        -0.0390
     10 C6        -18.7540   55.3570   17.8170 C.ar      1 TPI        -0.0205
     11 C7        -18.9980   53.9910   18.0000 C.ar      1 TPI         0.0621
     12 C8        -19.8620   53.3130   17.1080 C.ar      1 TPI        -0.0305
     13 C9        -20.4890   54.0160   16.0500 C.ar      1 TPI        -0.0336
     14 C10       -20.2440   55.3950   15.8790 C.ar      1 TPI         0.0211
     15 C11       -19.3650   56.0590   16.7660 C.ar      1 TPI         0.0068
     16 C12       -18.3240   53.2680   19.1560 C.2       1 TPI         0.2152
     17 O4        -17.6080   53.9250   19.9000 O.2       1 TPI        -0.3795
     18 N1        -18.5390   51.8320   19.3520 N.am      1 TPI        -0.2633
     19 C13       -17.8240   51.2530   20.5000 C.3       1 TPI         0.1318
     20 C14       -16.3230   51.4180   20.5180 C.2       1 TPI         0.1993
     21 N2        -15.7240   52.0710   21.6630 N.am      1 TPI        -0.2990
     22 O5        -15.6210   50.9870   19.6170 O.2       1 TPI        -0.3947
     23 C15       -18.1420   49.7480   20.6410 C.3       1 TPI        -0.0009
     24 C16       -19.6280   49.5050   20.9440 C.3       1 TPI         0.0044
     25 C17       -19.8660   48.0310   21.0820 C.2       1 TPI         0.0350
     26 O6        -21.1390   47.6770   21.2330 O.co2     1 TPI        -0.5690
     27 O7        -18.9550   47.2040   21.0680 O.co2     1 TPI        -0.5690
     28 F1        -21.4420   59.6270   14.1640 F         1 TPI        -0.2406
     29 F2        -22.5530   57.8710   13.4660 F         1 TPI        -0.2406
     30 H1        -21.5510   55.6355   14.1606 H         1 TPI         0.1017
     31 H2        -19.5211   59.2040   15.4916 H         1 TPI         0.0721
     32 H3        -18.4112   57.9216   17.2918 H         1 TPI         0.0667
     33 H4        -18.0865   55.8782   18.4937 H         1 TPI         0.0722
     34 H5        -20.0448   52.2520   17.2346 H         1 TPI         0.0685
     35 H6        -21.1561   53.4952   15.3727 H         1 TPI         0.0729
     36 H7        -19.1259   51.2880   18.7523 H         1 TPI         0.1879
     37 H8        -18.2099   51.7661   21.3932 H         1 TPI         0.0801
     38 H9        -14.7327   52.1958   21.7055 H         1 TPI         0.1815
     39 H10       -16.3016   52.3973   22.4113 H         1 TPI         0.1815
     40 H11       -17.5387   49.3319   21.4613 H         1 TPI         0.0330
     41 H12       -17.8826   49.2396   19.7007 H         1 TPI         0.0330
     42 H13       -20.2413   49.9017   20.1215 H         1 TPI         0.0433
     43 H14       -19.9003   50.0114   21.8817 H         1 TPI         0.0433
@<TRIPOS>BOND
     1    1    5 1  
     2    1    4 ar 
     3    1    3 ar 
     4    1    2 ar 
     5    5    7 1  
     6    7    6 ar 
     7    7    8 ar 
     8    8    9 ar 
     9    9   15 ar 
    10   15   14 ar 
    11   15   10 ar 
    12   10   11 ar 
    13   11   16 1  
    14   11   12 ar 
    15   12   13 ar 
    16   13   14 ar 
    17   14    6 ar 
    18   16   18 am 
    19   16   17 2  
    20   18   19 1  
    21   19   23 1  
    22   19   20 1  
    23   20   22 2  
    24   20   21 am 
    25   23   24 1  
    26   24   25 1  
    27   25   27 ar 
    28   25   26 ar 
    29    5   29 1  
    30    5   28 1  
    31    6   30 1  
    32    8   31 1  
    33    9   32 1  
    34   10   33 1  
    35   12   34 1  
    36   13   35 1  
    37   18   36 1  
    38   19   37 1  
    39   21   38 1  
    40   21   39 1  
    41   23   40 1  
    42   23   41 1  
    43   24   42 1  
    44   24   43 1  
@<TRIPOS>SUBSTRUCTURE
     1 TPI         1

