### 
### Created by X-TOOL on Fri Nov 18 13:40:29 2016
### 

@<TRIPOS>MOLECULE
1pfu_ligand
   21    20     1     0     0
SMALL
GAST_HUCK


@<TRIPOS>ATOM
      1 N          14.6630    8.9880   19.4450 N.4       1 MPJ         0.2328
      2 CA         14.3030   10.3730   19.8510 C.3       1 MPJ         0.0449
      3 CB         12.8200   10.5350   20.2230 C.3       1 MPJ         0.0150
      4 CG         11.8650   10.0490   19.1580 C.3       1 MPJ        -0.0000
      5 SD         10.1910   10.3110   19.7740 S.3       1 MPJ        -0.1639
      6 CE          9.2260    9.9980   18.2650 C.3       1 MPJ        -0.0181
      7 O1         15.1360    9.8070   22.4350 O.co2     1 MPJ        -0.5586
      8 O2         14.8870   12.5660   21.4470 O.co2     1 MPJ        -0.5586
      9 P          15.3000   10.9980   21.1990 P.3       1 MPJ         0.1102
     10 O3         16.7352   11.0073   20.7987 O.co2     1 MPJ        -0.5586
     11 H1         14.0685    8.6953   18.6855 H         1 MPJ         0.2011
     12 H2         14.5390    8.3654   20.2279 H         1 MPJ         0.2011
     13 H3         15.6255    8.9648   19.1464 H         1 MPJ         0.2011
     14 H4         14.4939   11.0130   18.9770 H         1 MPJ         0.1049
     15 H5         12.6229   11.6019   20.4041 H         1 MPJ         0.0343
     16 H6         12.6299    9.9654   21.1446 H         1 MPJ         0.0343
     17 H7         12.0310    8.9790   18.9642 H         1 MPJ         0.0379
     18 H8         12.0169   10.6179   18.2289 H         1 MPJ         0.0379
     19 H9          8.1548   10.1217   18.4826 H         1 MPJ         0.0340
     20 H10         9.4132    8.9717   17.9163 H         1 MPJ         0.0340
     21 H11         9.5261   10.7113   17.4833 H         1 MPJ         0.0340
@<TRIPOS>BOND
     1    1    2 1  
     2    2    3 1  
     3    2    9 1  
     4    3    4 1  
     5    4    5 1  
     6    5    6 1  
     7    9    7 ar 
     8    9    8 ar 
     9    9   10 ar 
    10    1   11 1  
    11    1   12 1  
    12    1   13 1  
    13    2   14 1  
    14    3   15 1  
    15    3   16 1  
    16    4   17 1  
    17    4   18 1  
    18    6   19 1  
    19    6   20 1  
    20    6   21 1  
@<TRIPOS>SUBSTRUCTURE
     1 MPJ         1

