### 
### Created by X-TOOL on Fri Nov 18 13:03:23 2016
### 

@<TRIPOS>MOLECULE
1kav_ligand
   42    43     1     0     0
SMALL
GAST_HUCK


@<TRIPOS>ATOM
      1 C1         32.5650   10.3760   90.1860 C.2       1 FEP        -0.0162
      2 C2         33.9230   10.1120   90.0900 C.2       1 FEP        -0.0225
      3 C3         34.6260    9.8850   91.2700 C.2       1 FEP        -0.0225
      4 C4         34.6670   10.8420   92.2790 C.2       1 FEP        -0.0162
      5 C5         28.4710   10.8170   86.6840 C.3       1 FEP         0.2833
      6 C6         31.7960   10.6300   89.0710 C.ar      1 FEP         0.0126
      7 C7         31.4330    9.5500   88.2640 C.ar      1 FEP        -0.0250
      8 C8         30.2870    9.5970   87.4770 C.ar      1 FEP        -0.0367
      9 C9         29.4750   10.7270   87.4810 C.ar      1 FEP         0.0158
     10 C10        29.8460   11.8130   88.2870 C.ar      1 FEP        -0.0367
     11 C11        30.9980   11.7750   89.0810 C.ar      1 FEP        -0.0250
     12 C12        37.6370   10.7390   96.8570 C.3       1 FEP         0.2833
     13 C13        35.3940   10.6190   93.4500 C.ar      1 FEP         0.0126
     14 C14        34.8100   10.9380   94.6780 C.ar      1 FEP        -0.0250
     15 C15        35.5840   11.0110   95.8350 C.ar      1 FEP        -0.0367
     16 C16        36.9590   10.7640   95.7790 C.ar      1 FEP         0.0158
     17 C17        37.5560   10.4390   94.5320 C.ar      1 FEP        -0.0367
     18 C18        36.7730   10.3700   93.3800 C.ar      1 FEP        -0.0250
     19 P1         28.4030   11.4170   84.8880 P.3       1 FEP         0.0891
     20 OP1        28.8130   12.9460   84.8810 O.co2     1 FEP        -0.5686
     21 OP2        26.9400   11.2010   84.2660 O.co2     1 FEP        -0.5686
     22 OP3        29.4600   10.5550   84.0510 O.co2     1 FEP        -0.5686
     23 P2         37.2060   11.3690   98.6150 P.3       1 FEP         0.0891
     24 OP4        37.1810   12.9950   98.6010 O.co2     1 FEP        -0.5686
     25 OP5        38.3370   10.8650   99.6690 O.co2     1 FEP        -0.5686
     26 OP6        35.7490   10.8080   99.0550 O.co2     1 FEP        -0.5686
     27 F1         28.0620    9.3480   86.4140 F         1 FEP        -0.2536
     28 F2         27.6310   11.3010   87.2900 F         1 FEP        -0.2536
     29 F3         37.7090    9.2310   97.1990 F         1 FEP        -0.2536
     30 F4         38.6740   11.0880   96.5750 F         1 FEP        -0.2536
     31 H1         32.0941   10.3828   91.1679 H         1 FEP         0.0825
     32 H2         34.4232   10.0832   89.1231 H         1 FEP         0.0836
     33 H3         35.1531    8.9418   91.4056 H         1 FEP         0.0836
     34 H4         34.1246   11.7780   92.1537 H         1 FEP         0.0825
     35 H5         32.0537    8.6614   88.2506 H         1 FEP         0.0721
     36 H6         30.0248    8.7477   86.8565 H         1 FEP         0.0821
     37 H7         29.2263   12.7024   88.2953 H         1 FEP         0.0821
     38 H8         31.2674   12.6254   89.6969 H         1 FEP         0.0721
     39 H9         33.7446   11.1307   94.7318 H         1 FEP         0.0721
     40 H10        35.1182   11.2602   96.7816 H         1 FEP         0.0821
     41 H11        38.6209   10.2445   94.4756 H         1 FEP         0.0821
     42 H12        37.2307   10.1235   92.4288 H         1 FEP         0.0721
@<TRIPOS>BOND
     1    1    6 1  
     2    1    2 2  
     3    2    3 1  
     4    3    4 2  
     5    4   13 1  
     6   13   18 ar 
     7   13   14 ar 
     8   14   15 ar 
     9   15   16 ar 
    10   16   12 1  
    11   16   17 ar 
    12   17   18 ar 
    13   12   23 1  
    14   23   26 ar 
    15   23   25 ar 
    16   23   24 ar 
    17    6   11 ar 
    18    6    7 ar 
    19    7    8 ar 
    20    8    9 ar 
    21    9    5 1  
    22    9   10 ar 
    23   10   11 ar 
    24    5   19 1  
    25   19   22 ar 
    26   19   21 ar 
    27   19   20 ar 
    28   12   29 1  
    29   12   30 1  
    30    5   27 1  
    31    5   28 1  
    32    1   31 1  
    33    2   32 1  
    34    3   33 1  
    35    4   34 1  
    36    7   35 1  
    37    8   36 1  
    38   10   37 1  
    39   11   38 1  
    40   14   39 1  
    41   15   40 1  
    42   17   41 1  
    43   18   42 1  
@<TRIPOS>SUBSTRUCTURE
     1 FEP         1

