### 
### Created by X-TOOL on Fri Nov 18 15:56:36 2016
### 

@<TRIPOS>MOLECULE
3n9r_ligand
   27    26     1     0     0
SMALL
GAST_HUCK


@<TRIPOS>ATOM
      1 O01        -9.5240   -9.0850  -42.2390 O.3       1 TD3        -0.2690
      2 N02       -10.2210   -7.8690  -42.2900 N.am      1 TD3        -0.1485
      3 C03        -9.4450   -6.6370  -42.2840 C.3       1 TD3         0.0630
      4 C04        -8.4630   -6.4400  -43.4440 C.3       1 TD3        -0.0278
      5 C05        -8.2020   -5.0360  -43.9880 C.3       1 TD3        -0.0278
      6 C06        -7.6040   -4.9690  -45.3960 C.3       1 TD3         0.0443
      7 O07        -6.3470   -4.3750  -45.5680 O.3       1 TD3        -0.3950
      8 C12       -11.6610   -7.8410  -42.5150 C.2       1 TD3         0.2322
      9 O13       -12.2240   -8.8590  -42.8040 O.2       1 TD3        -0.3938
     10 C14       -12.2600   -6.4980  -42.9470 C.3       1 TD3         0.1688
     11 O15       -11.9740   -6.1530  -44.2650 O.3       1 TD3        -0.2560
     12 P16       -12.2690   -4.6480  -44.8810 P.3       1 TD3         0.2041
     13 O17       -13.6490   -4.7520  -45.7370 O.co2     1 TD3        -0.5536
     14 O18       -10.9950   -4.2320  -45.8140 O.co2     1 TD3        -0.5536
     15 O19       -12.3940   -3.6650  -43.8060 O.co2     1 TD3        -0.5536
     16 H1        -10.1440   -9.8047  -42.2490 H         1 TD3         0.2493
     17 H2         -8.8665   -6.6113  -41.3488 H         1 TD3         0.0551
     18 H3        -10.1537   -5.7959  -42.3000 H         1 TD3         0.0551
     19 H4         -8.8378   -7.0426  -44.2845 H         1 TD3         0.0286
     20 H5         -7.4930   -6.8380  -43.1113 H         1 TD3         0.0286
     21 H6         -7.5064   -4.5316  -43.3013 H         1 TD3         0.0288
     22 H7         -9.1600   -4.4956  -44.0019 H         1 TD3         0.0288
     23 H8         -8.3143   -4.4096  -46.0226 H         1 TD3         0.0557
     24 H9         -7.5260   -6.0028  -45.7636 H         1 TD3         0.0557
     25 H10        -6.1067   -4.4054  -46.4865 H         1 TD3         0.2094
     26 H11       -11.8609   -5.7124  -42.2886 H         1 TD3         0.0857
     27 H12       -13.3526   -6.5526  -42.8322 H         1 TD3         0.0857
@<TRIPOS>BOND
     1    1    2 1  
     2    2    3 1  
     3    2    8 am 
     4    3    4 1  
     5    4    5 1  
     6    5    6 1  
     7    6    7 1  
     8    8    9 2  
     9    8   10 1  
    10   10   11 1  
    11   11   12 1  
    12   12   13 ar 
    13   12   14 ar 
    14   12   15 ar 
    15    1   16 1  
    16    3   17 1  
    17    3   18 1  
    18    4   19 1  
    19    4   20 1  
    20    5   21 1  
    21    5   22 1  
    22    6   23 1  
    23    6   24 1  
    24    7   25 1  
    25   10   26 1  
    26   10   27 1  
@<TRIPOS>SUBSTRUCTURE
     1 TD3         1

