### 
### Created by X-TOOL on Fri Nov 18 15:24:44 2016
### 

@<TRIPOS>MOLECULE
3cke_ligand
   49    48     1     0     0
SMALL
GAST_HUCK


@<TRIPOS>ATOM
      1 PA         -1.8450  -38.6980   19.9160 P.3       1 FDF         0.3288
      2 PB         -1.7600  -39.1070   17.3410 P.3       1 FDF         0.2070
      3 C1         -0.8800  -36.5200   20.3340 C.3       1 FDF         0.0917
      4 O1         -2.1150  -37.2250   19.9340 O.3       1 FDF        -0.2411
      5 O1A        -0.3250  -39.0740   20.0560 O.co2     1 FDF        -0.5555
      6 O1B        -0.5590  -38.2050   17.6650 O.co2     1 FDF        -0.5891
      7 C2         -0.9170  -35.0090   20.3380 C.2       1 FDF        -0.0782
      8 O2A        -2.5810  -39.2570   21.2430 O.co2     1 FDF        -0.5555
      9 O2B        -1.1350  -40.4150   16.6050 O.co2     1 FDF        -0.5891
     10 C3          0.0050  -34.2810   21.0290 C.2       1 FDF        -0.0804
     11 O3A        -2.6200  -39.4390   18.7380 O.3       1 FDF        -0.1547
     12 O3B        -2.8410  -38.4160   16.3010 O.co2     1 FDF        -0.5891
     13 C4          1.1040  -34.9450   21.8810 C.3       1 FDF        -0.0402
     14 C5         -0.0210  -32.7670   20.9620 C.3       1 FDF        -0.0253
     15 C6          1.2910  -32.3010   20.2700 C.3       1 FDF        -0.0388
     16 C7          0.9570  -31.8030   18.8800 C.2       1 FDF        -0.1070
     17 C8          1.5880  -32.2080   17.7840 C.2       1 FDF        -0.0827
     18 C9          1.1520  -31.6310   16.4800 C.3       1 FDF        -0.0254
     19 C10         2.7420  -33.2390   17.8070 C.3       1 FDF        -0.0402
     20 C11         0.6100  -32.7710   15.6230 C.3       1 FDF        -0.0386
     21 C12        -0.8750  -32.5820   15.3880 C.2       1 FDF        -0.1020
     22 C13        -1.8010  -33.5450   15.7130 C.2       1 FDF        -0.0200
     23 C14        -3.1330  -33.2950   15.4280 C.3       1 FDF         0.1181
     24 C15        -1.3930  -34.7890   16.2880 C.3       1 FDF         0.1181
     25 F1         -1.7940  -35.2550   17.4810 F         1 FDF        -0.2354
     26 F2         -3.8060  -34.2650   14.9030 F         1 FDF        -0.2354
     27 H1         -0.0833  -36.8295   19.6416 H         1 FDF         0.0696
     28 H2         -0.6275  -36.8474   21.3533 H         1 FDF         0.0696
     29 H3         -1.6951  -34.4922   19.7781 H         1 FDF         0.0268
     30 H4          1.7290  -34.1672   22.3441 H         1 FDF         0.0375
     31 H5          1.7290  -35.5840   21.2400 H         1 FDF         0.0375
     32 H6          0.6386  -35.5576   22.6671 H         1 FDF         0.0375
     33 H7         -0.0779  -32.3481   21.9775 H         1 FDF         0.0425
     34 H8         -0.8913  -32.4328   20.3782 H         1 FDF         0.0425
     35 H9          1.9933  -33.1449   20.2018 H         1 FDF         0.0361
     36 H10         1.7490  -31.4890   20.8538 H         1 FDF         0.0361
     37 H11         0.1559  -31.0731   18.7731 H         1 FDF         0.0244
     38 H12         2.0073  -31.1578   15.9756 H         1 FDF         0.0425
     39 H13         0.3644  -30.8815   16.6471 H         1 FDF         0.0425
     40 H14         2.9297  -33.5562   18.8434 H         1 FDF         0.0375
     41 H15         3.6521  -32.7800   17.3935 H         1 FDF         0.0375
     42 H16         2.4644  -34.1137   17.2005 H         1 FDF         0.0375
     43 H17         0.7781  -33.7272   16.1401 H         1 FDF         0.0361
     44 H18         1.1336  -32.7802   14.6556 H         1 FDF         0.0361
     45 H19        -1.2215  -31.6492   14.9455 H         1 FDF         0.0245
     46 H20        -3.1708  -32.4465   14.7290 H         1 FDF         0.0765
     47 H21        -3.6288  -33.0167   16.3696 H         1 FDF         0.0765
     48 H22        -0.2957  -34.7387   16.3469 H         1 FDF         0.0765
     49 H23        -1.6862  -35.5589   15.5591 H         1 FDF         0.0765
@<TRIPOS>BOND
     1    1    4 1  
     2    1    5 ar 
     3    1    8 ar 
     4   11    1 1  
     5    2    6 ar 
     6    2    9 ar 
     7    2   11 1  
     8    2   12 ar 
     9    4    3 1  
    10    3    7 1  
    11    7   10 2  
    12   10   13 1  
    13   10   14 1  
    14   14   15 1  
    15   15   16 1  
    16   16   17 2  
    17   17   18 1  
    18   17   19 1  
    19   18   20 1  
    20   20   21 1  
    21   21   22 2  
    22   22   23 1  
    23   22   24 1  
    24   23   26 1  
    25   24   25 1  
    26    3   27 1  
    27    3   28 1  
    28    7   29 1  
    29   13   30 1  
    30   13   31 1  
    31   13   32 1  
    32   14   33 1  
    33   14   34 1  
    34   15   35 1  
    35   15   36 1  
    36   16   37 1  
    37   18   38 1  
    38   18   39 1  
    39   19   40 1  
    40   19   41 1  
    41   19   42 1  
    42   20   43 1  
    43   20   44 1  
    44   21   45 1  
    45   23   46 1  
    46   23   47 1  
    47   24   48 1  
    48   24   49 1  
@<TRIPOS>SUBSTRUCTURE
     1 FDF         1

