### 
### Created by X-TOOL on Fri Nov 18 16:07:03 2016
### 

@<TRIPOS>MOLECULE
3lzz_ligand
   41    43     1     0     0
SMALL
GAST_HUCK


@<TRIPOS>ATOM
      1 PB        -24.9580   -7.4180   15.6940 P.3       1 GDP         0.2069
      2 O1B       -26.1250   -8.3610   15.7750 O.co2     1 GDP        -0.5891
      3 O2B       -25.4530   -6.0140   15.4630 O.co2     1 GDP        -0.5891
      4 O3B       -24.2230   -7.4770   16.9940 O.co2     1 GDP        -0.5891
      5 O3A       -24.0090   -7.9040   14.4980 O.3       1 GDP        -0.1548
      6 PA        -24.6460   -8.7390   13.2770 P.3       1 GDP         0.3276
      7 O1A       -26.1230   -8.4870   13.2390 O.co2     1 GDP        -0.5556
      8 O2A       -24.2690  -10.2020   13.2840 O.co2     1 GDP        -0.5556
      9 O5'       -24.0910   -8.1220   11.9440 O.3       1 GDP        -0.2436
     10 C5'       -25.1200   -7.8100   11.0450 C.3       1 GDP         0.1132
     11 C4'       -24.7040   -8.2670    9.6800 C.3       1 GDP         0.1190
     12 O4'       -25.8750   -8.4550    8.9100 O.3       1 GDP        -0.3347
     13 C3'       -23.8540   -7.2480    8.9450 C.3       1 GDP         0.1151
     14 O3'       -22.4920   -7.6880    8.8420 O.3       1 GDP        -0.3864
     15 C2'       -24.5000   -7.2160    7.5790 C.3       1 GDP         0.1407
     16 O2'       -23.4900   -7.3970    6.6310 O.3       1 GDP        -0.3835
     17 C1'       -25.3390   -8.4550    7.6210 C.3       1 GDP         0.2218
     18 N9        -26.2450   -8.7170    6.5030 N.pl3     1 GDP        -0.0954
     19 C8        -27.4640   -9.2350    6.4740 C.2       1 GDP         0.1855
     20 N7        -27.8770   -9.3510    5.2030 N.2       1 GDP        -0.1929
     21 C5        -26.8930   -8.9430    4.3990 C.2       1 GDP         0.2558
     22 C6        -26.6010   -8.7720    2.9540 C.2       1 GDP         0.2628
     23 O6        -27.3740   -9.0550    2.0730 O.2       1 GDP        -0.3594
     24 N1        -25.4460   -8.2800    2.6090 N.am      1 GDP        -0.2478
     25 C2        -24.5470   -7.9480    3.5320 C.cat     1 GDP         0.2041
     26 N2        -23.3610   -7.4530    3.1980 N.pl3     1 GDP        -0.3327
     27 N3        -24.7270   -8.0730    4.8250 N.pl3     1 GDP        -0.1901
     28 C4        -25.8460   -8.5370    5.2990 C.2       1 GDP         0.3268
     29 H1        -25.2913   -6.7235   11.0377 H         1 GDP         0.0648
     30 H2        -26.0448   -8.3250   11.3442 H         1 GDP         0.0648
     31 H3        -24.1467   -9.2112    9.7690 H         1 GDP         0.0651
     32 H4        -23.8927   -6.2638    9.4347 H         1 GDP         0.0648
     33 H5        -21.9830   -7.0332    8.3787 H         1 GDP         0.2100
     34 H6        -25.0831   -6.3024    7.3913 H         1 GDP         0.0677
     35 H7        -23.0655   -8.2341    6.7780 H         1 GDP         0.2101
     36 H8        -24.6356   -9.2999    7.5826 H         1 GDP         0.1021
     37 H9        -28.0434   -9.5232    7.3499 H         1 GDP         0.1823
     38 H10       -25.2324   -8.1503    1.6407 H         1 GDP         0.1819
     39 H11       -22.6820   -7.2036    3.9313 H         1 GDP         0.1774
     40 H12       -23.1200   -7.3185    2.2057 H         1 GDP         0.1774
     41 H13       -23.9738   -7.8007    5.4726 H         1 GDP         0.2519
@<TRIPOS>BOND
     1    1    2 ar 
     2    1    3 ar 
     3    1    4 ar 
     4    1    5 1  
     5    5    6 1  
     6    6    7 ar 
     7    6    8 ar 
     8    6    9 1  
     9    9   10 1  
    10   10   11 1  
    11   11   12 1  
    12   11   13 1  
    13   12   17 1  
    14   13   14 1  
    15   13   15 1  
    16   15   16 1  
    17   15   17 1  
    18   17   18 1  
    19   18   19 1  
    20   18   28 1  
    21   19   20 2  
    22   20   21 1  
    23   21   22 1  
    24   21   28 2  
    25   22   23 2  
    26   22   24 am 
    27   24   25 ar 
    28   25   26 ar 
    29   25   27 ar 
    30   27   28 1  
    31   10   29 1  
    32   10   30 1  
    33   11   31 1  
    34   13   32 1  
    35   14   33 1  
    36   15   34 1  
    37   16   35 1  
    38   17   36 1  
    39   19   37 1  
    40   24   38 1  
    41   26   39 1  
    42   26   40 1  
    43   27   41 1  
@<TRIPOS>SUBSTRUCTURE
     1 GDP         1

