### 
### Created by X-TOOL on Fri Nov 18 15:36:08 2016
### 

@<TRIPOS>MOLECULE
3fuc_ligand
   36    37     1     0     0
SMALL
GAST_HUCK


@<TRIPOS>ATOM
      1 O2P        32.3860  -14.9410   24.9800 O.co2     1 MOL        -0.5584
      2 P          31.3390  -14.0990   24.1700 P.3       1 MOL         0.1320
      3 O3P        30.0310  -13.8640   25.0680 O.co2     1 MOL        -0.5584
      4 O1P        30.9710  -14.6990   22.8460 O.co2     1 MOL        -0.5584
      5 C14        31.9840  -12.4160   23.8580 C.3       1 MOL         0.3142
      6 F1         32.9330  -12.4970   22.8860 F         1 MOL        -0.1865
      7 F2         30.9860  -11.6460   23.4100 F         1 MOL        -0.1865
      8 C13        32.6100  -11.8350   25.1200 C.3       1 MOL         0.0270
      9 C12        32.7940  -10.3110   24.9620 C.3       1 MOL        -0.0446
     10 C11        33.3950   -9.6850   26.2270 C.3       1 MOL        -0.0442
     11 C10        32.6170  -10.1110   27.4920 C.3       1 MOL        -0.0096
     12 C9         33.0520   -9.3200   28.7270 C.2       1 MOL         0.0748
     13 C8         34.1090   -9.5590   29.5300 C.2       1 MOL         0.1144
     14 N7         34.1320   -8.6250   30.5030 N.pl3     1 MOL        -0.1829
     15 C5         33.0950   -7.7550   30.3580 C.2       1 MOL         0.2675
     16 C6         32.6570   -6.6250   31.0250 C.2       1 MOL         0.2962
     17 O6         33.1950   -6.1300   32.0220 O.2       1 MOL        -0.3417
     18 N1         31.4850   -5.9810   30.5030 N.am      1 MOL        -0.2471
     19 C2         30.8530   -6.5460   29.3350 C.cat     1 MOL         0.1780
     20 N2         29.7440   -5.8420   29.0170 N.pl3     1 MOL        -0.3388
     21 N3         31.2320   -7.5640   28.7140 N.pl3     1 MOL        -0.2604
     22 C4         32.4070   -8.1990   29.2290 C.2       1 MOL         0.1837
     23 H1         33.5899  -12.3048   25.2905 H         1 MOL         0.0338
     24 H2         31.9526  -12.0358   25.9788 H         1 MOL         0.0338
     25 H3         31.8144   -9.8508   24.7659 H         1 MOL         0.0269
     26 H4         33.4664  -10.1179   24.1132 H         1 MOL         0.0269
     27 H5         33.3579   -8.5894   26.1363 H         1 MOL         0.0285
     28 H6         34.4415  -10.0097   26.3244 H         1 MOL         0.0285
     29 H7         32.7953  -11.1809   27.6749 H         1 MOL         0.0409
     30 H8         31.5434   -9.9419   27.3222 H         1 MOL         0.0409
     31 H9         34.8249  -10.3711   29.4124 H         1 MOL         0.1597
     32 H10        34.8370   -8.5767   31.2524 H         1 MOL         0.2608
     33 H11        31.1152   -5.1602   30.9384 H         1 MOL         0.1817
     34 H12        29.1749   -6.1172   28.2038 H         1 MOL         0.1747
     35 H13        29.4679   -5.0303   29.5878 H         1 MOL         0.1747
     36 H14        30.7319   -7.9212   27.8874 H         1 MOL         0.2181
@<TRIPOS>BOND
     1    1    2 ar 
     2    2    3 ar 
     3    2    4 ar 
     4    2    5 1  
     5    5    6 1  
     6    5    7 1  
     7    5    8 1  
     8    8    9 1  
     9    9   10 1  
    10   10   11 1  
    11   11   12 1  
    12   12   13 2  
    13   12   22 1  
    14   13   14 1  
    15   14   15 1  
    16   15   16 1  
    17   15   22 2  
    18   16   17 2  
    19   16   18 am 
    20   18   19 ar 
    21   19   20 ar 
    22   19   21 ar 
    23   21   22 1  
    24    8   23 1  
    25    8   24 1  
    26    9   25 1  
    27    9   26 1  
    28   10   27 1  
    29   10   28 1  
    30   11   29 1  
    31   11   30 1  
    32   13   31 1  
    33   14   32 1  
    34   18   33 1  
    35   20   34 1  
    36   20   35 1  
    37   21   36 1  
@<TRIPOS>SUBSTRUCTURE
     1 MOL         1

