### 
### Created by X-TOOL on Fri Nov 18 15:13:58 2016
### 

@<TRIPOS>MOLECULE
2rcn_ligand
   41    43     1     0     0
SMALL
GAST_HUCK


@<TRIPOS>ATOM
      1 PB         18.3700   65.5040  -14.1160 P.3       1 GDP         0.2069
      2 O1B        17.8300   66.0120  -12.8320 O.co2     1 GDP        -0.5891
      3 O2B        17.3780   65.9200  -15.3050 O.co2     1 GDP        -0.5891
      4 O3B        18.4630   63.9020  -14.0360 O.co2     1 GDP        -0.5891
      5 O3A        19.8240   66.1860  -14.3680 O.3       1 GDP        -0.1548
      6 PA         20.8560   65.1870  -15.1540 P.3       1 GDP         0.3276
      7 O1A        20.2310   64.6020  -16.3640 O.co2     1 GDP        -0.5556
      8 O2A        21.3190   64.0030  -14.1730 O.co2     1 GDP        -0.5556
      9 O5'        22.1630   66.0400  -15.5680 O.3       1 GDP        -0.2436
     10 C5'        21.7500   67.1750  -16.3510 C.3       1 GDP         0.1132
     11 C4'        22.9950   68.0110  -16.7290 C.3       1 GDP         0.1190
     12 O4'        23.6530   68.5040  -15.5170 O.3       1 GDP        -0.3347
     13 C3'        24.0730   67.1810  -17.5110 C.3       1 GDP         0.1151
     14 O3'        23.5320   65.9840  -18.0880 O.3       1 GDP        -0.3864
     15 C2'        25.0960   66.8430  -16.4230 C.3       1 GDP         0.1407
     16 O2'        26.3900   66.6300  -16.9800 O.3       1 GDP        -0.3835
     17 C1'        25.0550   68.1240  -15.5790 C.3       1 GDP         0.2218
     18 N9         25.5980   67.9090  -14.2360 N.pl3     1 GDP        -0.0954
     19 C8         25.1310   67.0230  -13.2920 C.2       1 GDP         0.1855
     20 N7         25.7590   67.1960  -12.1630 N.2       1 GDP        -0.1929
     21 C5         26.5880   68.2580  -12.2780 C.2       1 GDP         0.2558
     22 C6         27.5790   68.8470  -11.4360 C.2       1 GDP         0.2628
     23 O6         27.7180   68.4680  -10.2870 O.2       1 GDP        -0.3594
     24 N1         28.2810   69.9310  -11.9070 N.am      1 GDP        -0.2478
     25 C2         28.1700   70.3190  -13.2280 C.cat     1 GDP         0.2041
     26 N2         29.0040   71.2880  -13.7220 N.pl3     1 GDP        -0.3327
     27 N3         27.3130   69.7160  -14.0470 N.pl3     1 GDP        -0.1901
     28 C4         26.4730   68.7440  -13.6070 C.2       1 GDP         0.3268
     29 H1         21.0554   67.7939  -15.7641 H         1 GDP         0.0648
     30 H2         21.2481   66.8278  -17.2662 H         1 GDP         0.0648
     31 H3         22.6711   68.8597  -17.3493 H         1 GDP         0.0651
     32 H4         24.5291   67.7893  -18.3059 H         1 GDP         0.0648
     33 H5         23.1804   65.4325  -17.3989 H         1 GDP         0.2100
     34 H6         24.7940   65.9610  -15.8392 H         1 GDP         0.0677
     35 H7         27.0028   66.4227  -16.2843 H         1 GDP         0.2101
     36 H8         25.6378   68.9151  -16.0735 H         1 GDP         0.1021
     37 H9         24.3496   66.2841  -13.4636 H         1 GDP         0.1823
     38 H10        28.8769   70.4428  -11.2882 H         1 GDP         0.1819
     39 H11        28.9262   71.5817  -14.7062 H         1 GDP         0.1774
     40 H12        29.7086   71.7225  -13.1091 H         1 GDP         0.1774
     41 H13        27.2858   69.9929  -15.0387 H         1 GDP         0.2519
@<TRIPOS>BOND
     1    1    2 ar 
     2    1    3 ar 
     3    1    4 ar 
     4    1    5 1  
     5    5    6 1  
     6    6    7 ar 
     7    6    8 ar 
     8    6    9 1  
     9    9   10 1  
    10   10   11 1  
    11   11   12 1  
    12   11   13 1  
    13   12   17 1  
    14   13   14 1  
    15   13   15 1  
    16   15   16 1  
    17   15   17 1  
    18   17   18 1  
    19   18   19 1  
    20   18   28 1  
    21   19   20 2  
    22   20   21 1  
    23   21   22 1  
    24   21   28 2  
    25   22   23 2  
    26   22   24 am 
    27   24   25 ar 
    28   25   26 ar 
    29   25   27 ar 
    30   27   28 1  
    31   10   29 1  
    32   10   30 1  
    33   11   31 1  
    34   13   32 1  
    35   14   33 1  
    36   15   34 1  
    37   16   35 1  
    38   17   36 1  
    39   19   37 1  
    40   24   38 1  
    41   26   39 1  
    42   26   40 1  
    43   27   41 1  
@<TRIPOS>SUBSTRUCTURE
     1 GDP         1

