### 
### Created by X-TOOL on Fri Nov 18 16:35:22 2016
### 

@<TRIPOS>MOLECULE
3ohi_ligand
   29    29     1     0     0
SMALL
GAST_HUCK


@<TRIPOS>ATOM
      1 OAA        12.2380    0.3020   18.7040 O.2       1 HDX        -0.4223
      2 OAB        16.4910   -0.2610   15.8380 O.co2     1 HDX        -0.5603
      3 OAC        12.8300    6.8690   12.7400 O.co2     1 HDX        -0.5537
      4 OAD        10.1610    1.6330   17.5720 O.3       1 HDX        -0.3495
      5 OAE        16.8360    1.9430   16.9980 O.co2     1 HDX        -0.5603
      6 OAF        17.3410   -0.2380   18.1950 O.co2     1 HDX        -0.5603
      7 OAG        10.8320    5.9230   11.4430 O.co2     1 HDX        -0.5537
      8 OAH        10.4350    7.1640   13.5850 O.co2     1 HDX        -0.5537
      9 CAI        13.0210    2.5430   15.4500 C.2       1 HDX        -0.0545
     10 CAJ        14.0410    1.8270   16.0800 C.2       1 HDX         0.0484
     11 CAK        11.0940    4.7620   14.9800 C.3       1 HDX         0.0858
     12 CAL        10.6470    3.3060   15.2060 C.3       1 HDX         0.0002
     13 CAM        14.8410    0.3150   17.8360 C.3       1 HDX         0.1350
     14 OAN        11.5880    4.9530   13.6370 O.3       1 HDX        -0.2742
     15 CAO        12.4630    0.9980   17.6790 C.2       1 HDX         0.2286
     16 CAP        11.7110    2.4970   15.9320 C.2       1 HDX        -0.0322
     17 CAQ        11.4270    1.7120   17.0560 C.2       1 HDX         0.1363
     18 NAR        13.7910    1.0710   17.1650 N.am      1 HDX        -0.2028
     19 PAS        16.4920    0.4860   17.1530 P.3       1 HDX         0.0914
     20 PAT        11.4100    6.3300   12.7850 P.3       1 HDX         0.2009
     21 H1          9.5731    2.1648   17.0485 H         1 HDX         0.2373
     22 H2         13.2499    3.1449   14.5718 H         1 HDX         0.0297
     23 H3         15.0552    1.8812   15.6870 H         1 HDX         0.1070
     24 H4         11.8934    5.0072   15.6947 H         1 HDX         0.0633
     25 H5         10.2364    5.4306   15.1455 H         1 HDX         0.0633
     26 H6         10.4479    2.8387   14.2303 H         1 HDX         0.0424
     27 H7          9.7262    3.3051   15.8078 H         1 HDX         0.0424
     28 H8         14.5682   -0.7498   17.7945 H         1 HDX         0.0827
     29 H9         14.8750    0.6442   18.8850 H         1 HDX         0.0827
@<TRIPOS>BOND
     1   15    1 2  
     2   19    2 ar 
     3   20    3 ar 
     4   17    4 1  
     5   19    5 ar 
     6   19    6 ar 
     7   20    7 ar 
     8   20    8 ar 
     9   10    9 2  
    10    9   16 1  
    11   18   10 1  
    12   12   11 1  
    13   11   14 1  
    14   16   12 1  
    15   18   13 1  
    16   13   19 1  
    17   14   20 1  
    18   15   17 1  
    19   15   18 am 
    20   16   17 2  
    21    4   21 1  
    22    9   22 1  
    23   10   23 1  
    24   11   24 1  
    25   11   25 1  
    26   12   26 1  
    27   12   27 1  
    28   13   28 1  
    29   13   29 1  
@<TRIPOS>SUBSTRUCTURE
     1 HDX         1

