### 
### Created by X-TOOL on Fri Nov 18 15:52:46 2016
### 

@<TRIPOS>MOLECULE
3iss_ligand
   72    74     1     0     0
SMALL
GAST_HUCK


@<TRIPOS>ATOM
      1 N1U        -6.6410  -13.4470   -3.0100 N.am      1 EPU        -0.1592
      2 C2U        -7.1240  -14.7250   -2.9110 C.2       1 EPU         0.3328
      3 N3U        -6.6650  -15.5980   -2.0290 N.am      1 EPU        -0.1865
      4 C4U        -5.6980  -15.2340   -1.2170 C.2       1 EPU         0.1822
      5 C5U        -5.1900  -13.9610   -1.2970 C.2       1 EPU         0.0062
      6 C6U        -5.6850  -13.0600   -2.2130 C.2       1 EPU         0.0591
      7 O2U        -8.0100  -15.0620   -3.6700 O.2       1 EPU        -0.3815
      8 O4U        -5.2740  -16.0480   -0.4080 O.2       1 EPU        -0.4124
      9 C1D        -7.2320  -12.5820   -4.0010 C.3       1 EPU         0.2059
     10 C2D        -7.6600  -11.2930   -3.3680 C.3       1 EPU         0.1387
     11 O2D        -9.0650  -11.1990   -3.4050 O.3       1 EPU        -0.3836
     12 C3D        -7.1370  -10.2390   -4.2750 C.3       1 EPU         0.1149
     13 C4D        -6.0930  -10.9070   -5.1270 C.3       1 EPU         0.1189
     14 O4D        -6.3210  -12.2840   -5.0350 O.3       1 EPU        -0.3363
     15 O3D        -8.2400   -9.8360   -5.0600 O.3       1 EPU        -0.3864
     16 C5D        -4.6810  -10.7320   -4.6180 C.3       1 EPU         0.1128
     17 O5D        -4.5030   -9.6740   -3.7060 O.3       1 EPU        -0.2476
     18 PA         -3.1430   -9.5890   -2.9850 P.3       1 EPU         0.2972
     19 O1A        -3.0910  -10.6890   -2.0790 O.co2     1 EPU        -0.6127
     20 O2A        -2.1740   -9.4550   -4.0380 O.co2     1 EPU        -0.6127
     21 O3A        -3.2630   -8.2410   -2.2060 O.3       1 EPU        -0.1318
     22 PB         -3.0210   -7.9580   -0.6700 P.3       1 EPU         0.2996
     23 O1B        -1.8490   -8.6330   -0.1880 O.co2     1 EPU        -0.6127
     24 O2B        -4.2350   -8.1290    0.0830 O.co2     1 EPU        -0.6127
     25 C1         -1.5870   -5.9570   -1.0160 C.3       1 EPU         0.2196
     26 C2         -1.5590   -4.5210   -0.5750 C.3       1 EPU         0.1264
     27 C3         -2.7840   -3.8320   -1.0950 C.3       1 EPU         0.1174
     28 C4         -2.6850   -3.8910   -2.5690 C.3       1 EPU         0.1121
     29 C5         -2.6940   -5.3370   -2.9390 C.3       1 EPU         0.1133
     30 C6         -2.5970   -5.3690   -4.4240 C.3       1 EPU         0.0730
     31 C7         -0.7350   -4.3130    1.6070 C.2       1 EPU         0.1734
     32 C8         -0.9520   -4.2270    3.0680 C.3       1 EPU         0.0257
     33 N2         -1.7740   -4.4730    0.8340 N.am      1 EPU        -0.2762
     34 O1         -2.8150   -6.4500   -0.6700 O.3       1 EPU        -0.2157
     35 O3         -2.7760   -2.4830   -0.7410 O.3       1 EPU        -0.3545
     36 O4         -3.8520   -3.2760   -3.0240 O.3       1 EPU        -0.3865
     37 O5         -1.5720   -5.9780   -2.4100 O.3       1 EPU        -0.3366
     38 O6         -1.7830   -4.2610   -4.7070 O.3       1 EPU        -0.3924
     39 O7          0.3520   -4.2500    1.1460 O.2       1 EPU        -0.3974
     40 C1E        -3.0590   -1.0700    1.2070 C.2       1 EPU         0.0633
     41 O1E        -2.5150   -0.1290    0.6530 O.co2     1 EPU        -0.5663
     42 O2E        -3.1390   -1.0800    2.4340 O.co2     1 EPU        -0.5663
     43 C2E        -3.5950   -2.2050    0.3800 C.3       1 EPU         0.1085
     44 C3E        -5.0050   -1.9230   -0.0830 C.3       1 EPU        -0.0266
     45 H1         -7.0480  -16.5205   -1.9811 H         1 EPU         0.2259
     46 H2         -4.3855  -13.6601   -0.6276 H         1 EPU         0.0258
     47 H3         -5.2871  -12.0479   -2.2702 H         1 EPU         0.1178
     48 H4         -8.1102  -13.0862   -4.4305 H         1 EPU         0.0997
     49 H5         -7.2765  -11.1924   -2.3420 H         1 EPU         0.0676
     50 H6         -9.3592  -11.2232   -4.3080 H         1 EPU         0.2101
     51 H7         -6.7115   -9.3890   -3.7215 H         1 EPU         0.0648
     52 H8         -6.1721  -10.5478   -6.1637 H         1 EPU         0.0651
     53 H9         -8.8867   -9.4172   -4.5042 H         1 EPU         0.2100
     54 H10        -4.0266  -10.5500   -5.4833 H         1 EPU         0.0648
     55 H11        -4.3797  -11.6655   -4.1203 H         1 EPU         0.0648
     56 H12        -0.7605   -6.5376   -0.5804 H         1 EPU         0.0996
     57 H13        -0.6270   -4.0240   -0.8822 H         1 EPU         0.0637
     58 H14        -3.6969   -4.3246   -0.7291 H         1 EPU         0.0649
     59 H15        -1.7845   -3.3867   -2.9493 H         1 EPU         0.0647
     60 H16        -3.6146   -5.8263   -2.5883 H         1 EPU         0.0647
     61 H17        -3.5884   -5.2610   -4.8882 H         1 EPU         0.0584
     62 H18        -2.1297   -6.3026   -4.7704 H         1 EPU         0.0584
     63 H19         0.0150   -4.0937    3.5751 H         1 EPU         0.0467
     64 H20        -1.4277   -5.1530    3.4232 H         1 EPU         0.0467
     65 H21        -1.6046   -3.3703    3.2920 H         1 EPU         0.0467
     66 H22        -2.6933   -4.5594    1.2180 H         1 EPU         0.1857
     67 H23        -3.8382   -2.3568   -2.7846 H         1 EPU         0.2100
     68 H24        -2.2010   -3.4715   -4.3836 H         1 EPU         0.2095
     69 H25        -3.6153   -3.1017    1.0168 H         1 EPU         0.0763
     70 H26        -5.6407   -1.7071    0.7883 H         1 EPU         0.0273
     71 H27        -5.3987   -2.8013   -0.6155 H         1 EPU         0.0273
     72 H28        -5.0024   -1.0552   -0.7589 H         1 EPU         0.0273
@<TRIPOS>BOND
     1    1    2 am 
     2    1    6 1  
     3    9    1 1  
     4    2    3 am 
     5    2    7 2  
     6    3    4 am 
     7    5    4 1  
     8    4    8 2  
     9    6    5 2  
    10    9   10 1  
    11   14    9 1  
    12   10   11 1  
    13   12   10 1  
    14   13   12 1  
    15   12   15 1  
    16   13   14 1  
    17   16   13 1  
    18   17   16 1  
    19   18   17 1  
    20   18   19 ar 
    21   18   20 ar 
    22   21   18 1  
    23   22   21 1  
    24   22   23 ar 
    25   22   24 ar 
    26   34   22 1  
    27   26   25 1  
    28   25   34 1  
    29   25   37 1  
    30   27   26 1  
    31   26   33 1  
    32   27   28 1  
    33   35   27 1  
    34   28   29 1  
    35   28   36 1  
    36   29   30 1  
    37   29   37 1  
    38   30   38 1  
    39   31   32 1  
    40   33   31 am 
    41   31   39 2  
    42   43   35 1  
    43   40   41 ar 
    44   40   42 ar 
    45   40   43 1  
    46   43   44 1  
    47    3   45 1  
    48    5   46 1  
    49    6   47 1  
    50    9   48 1  
    51   10   49 1  
    52   11   50 1  
    53   12   51 1  
    54   13   52 1  
    55   15   53 1  
    56   16   54 1  
    57   16   55 1  
    58   25   56 1  
    59   26   57 1  
    60   27   58 1  
    61   28   59 1  
    62   29   60 1  
    63   30   61 1  
    64   30   62 1  
    65   32   63 1  
    66   32   64 1  
    67   32   65 1  
    68   33   66 1  
    69   36   67 1  
    70   38   68 1  
    71   43   69 1  
    72   44   70 1  
    73   44   71 1  
    74   44   72 1  
@<TRIPOS>SUBSTRUCTURE
     1 EPU         1

