### 
### Created by X-TOOL on Fri Nov 18 17:33:57 2016
### 

@<TRIPOS>MOLECULE
4jyb_ligand
   46    48     1     0     0
SMALL
GAST_HUCK


@<TRIPOS>ATOM
      1 PG         57.5550    4.2660   41.8120 P.3       1 GNP         0.1803
      2 O1G        57.3150    2.9880   41.1030 O.co2     1 GNP        -0.5454
      3 O2G        57.7160    5.4310   40.7070 O.co2     1 GNP        -0.5454
      4 O3G        56.3140    4.6680   42.7700 O.co2     1 GNP        -0.5454
      5 N3B        59.0190    4.0620   42.7960 N.am      1 GNP        -0.1803
      6 PB         59.6810    5.3670   43.7380 P.3       1 GNP         0.2543
      7 O1B        60.4750    6.2310   42.8260 O.co2     1 GNP        -0.6257
      8 O2B        58.5830    6.2300   44.4860 O.co2     1 GNP        -0.6257
      9 O3A        60.6870    4.7830   44.8540 O.3       1 GNP        -0.1431
     10 PA         60.3340    4.5510   46.4170 P.3       1 GNP         0.2949
     11 O1A        60.2130    5.8870   47.1400 O.co2     1 GNP        -0.6129
     12 O2A        59.2430    3.5360   46.5220 O.co2     1 GNP        -0.6129
     13 O5'        61.7250    3.8840   46.8380 O.3       1 GNP        -0.2478
     14 C5'        62.1620    2.7010   46.1570 C.3       1 GNP         0.1128
     15 C4'        63.1590    1.9810   47.0350 C.3       1 GNP         0.1190
     16 O4'        64.3400    2.7730   47.1520 O.3       1 GNP        -0.3347
     17 C3'        62.6280    1.7740   48.4500 C.3       1 GNP         0.1151
     18 O3'        63.1350    0.5480   48.9920 O.3       1 GNP        -0.3864
     19 C2'        63.1880    2.9270   49.2370 C.3       1 GNP         0.1407
     20 O2'        63.4320    2.6660   50.6260 O.3       1 GNP        -0.3835
     21 C1'        64.5100    3.1370   48.5280 C.3       1 GNP         0.2218
     22 N9         64.9500    4.5330   48.7150 N.pl3     1 GNP        -0.0954
     23 C8         64.2680    5.6880   48.5160 C.2       1 GNP         0.1855
     24 N7         65.0540    6.7620   48.8190 N.2       1 GNP        -0.1929
     25 C5         66.2510    6.2840   49.2380 C.2       1 GNP         0.2558
     26 C6         67.5220    6.8450   49.7260 C.2       1 GNP         0.2628
     27 O6         67.6890    8.0870   49.8030 O.2       1 GNP        -0.3594
     28 N1         68.5050    5.9740   50.0610 N.am      1 GNP        -0.2478
     29 C2         68.3330    4.6350   49.9690 C.cat     1 GNP         0.2041
     30 N2         69.3140    3.7890   50.3000 N.pl3     1 GNP        -0.3327
     31 N3         67.1860    4.0560   49.5400 N.pl3     1 GNP        -0.1901
     32 C4         66.1530    4.8240   49.1670 C.2       1 GNP         0.3268
     33 H1         59.4758    3.1725   42.8092 H         1 GNP         0.2132
     34 H2         62.6379    2.9761   45.2042 H         1 GNP         0.0648
     35 H3         61.3001    2.0463   45.9609 H         1 GNP         0.0648
     36 H4         63.3986    1.0066   46.5842 H         1 GNP         0.0651
     37 H5         61.5281    1.7729   48.4662 H         1 GNP         0.0648
     38 H6         62.8574   -0.1775   48.4451 H         1 GNP         0.2100
     39 H7         62.5333    3.8066   49.1501 H         1 GNP         0.0677
     40 H8         64.0574    1.9556   50.7085 H         1 GNP         0.2101
     41 H9         65.2686    2.4756   48.9718 H         1 GNP         0.1021
     42 H10        63.2392    5.7499   48.1643 H         1 GNP         0.1823
     43 H11        69.3813    6.3307   50.3850 H         1 GNP         0.1819
     44 H12        69.1652    2.7727   50.2237 H         1 GNP         0.1774
     45 H13        70.2185    4.1536   50.6313 H         1 GNP         0.1774
     46 H14        67.1081    3.0297   49.5006 H         1 GNP         0.2519
@<TRIPOS>BOND
     1    1    2 ar 
     2    1    3 ar 
     3    1    4 ar 
     4    1    5 am 
     5    5    6 1  
     6    6    7 ar 
     7    6    8 ar 
     8    6    9 1  
     9    9   10 1  
    10   10   11 ar 
    11   10   12 ar 
    12   10   13 1  
    13   13   14 1  
    14   14   15 1  
    15   15   16 1  
    16   15   17 1  
    17   16   21 1  
    18   17   18 1  
    19   17   19 1  
    20   19   20 1  
    21   19   21 1  
    22   21   22 1  
    23   22   23 1  
    24   22   32 1  
    25   23   24 2  
    26   24   25 1  
    27   25   26 1  
    28   25   32 2  
    29   26   27 2  
    30   26   28 am 
    31   28   29 ar 
    32   29   30 ar 
    33   29   31 ar 
    34   31   32 1  
    35    5   33 1  
    36   14   34 1  
    37   14   35 1  
    38   15   36 1  
    39   17   37 1  
    40   18   38 1  
    41   19   39 1  
    42   20   40 1  
    43   21   41 1  
    44   23   42 1  
    45   28   43 1  
    46   30   44 1  
    47   30   45 1  
    48   31   46 1  
@<TRIPOS>SUBSTRUCTURE
     1 GNP         1

