### 
### Created by X-TOOL on Fri Nov 18 15:08:51 2016
### 

@<TRIPOS>MOLECULE
2rka_ligand
   11    10     1     0     0
SMALL
GAST_HUCK


@<TRIPOS>ATOM
      1 P          13.1880    3.3870   18.4610 P.3       1 PGA         0.2032
      2 O1P        14.0660    4.7340   18.4330 O.3       1 PGA        -0.2622
      3 O2P        13.5220    2.5810   17.2280 O.co2     1 PGA        -0.5536
      4 O3P        11.7300    3.7740   18.4510 O.co2     1 PGA        -0.5536
      5 O4P        13.4560    2.5720   19.7030 O.co2     1 PGA        -0.5536
      6 C2         15.2790    4.8540   19.1330 C.3       1 PGA         0.1305
      7 C1         16.3710    5.2120   18.1610 C.2       1 PGA         0.0653
      8 O1         17.3720    4.4820   18.0970 O.co2     1 PGA        -0.5663
      9 O2         16.2980    6.2190   17.4180 O.co2     1 PGA        -0.5663
     10 H1         15.5190    3.8983   19.6220 H         1 PGA         0.0783
     11 H2         15.1893    5.6430   19.8942 H         1 PGA         0.0783
@<TRIPOS>BOND
     1    1    2 1  
     2    1    3 ar 
     3    1    4 ar 
     4    1    5 ar 
     5    2    6 1  
     6    6    7 1  
     7    7    8 ar 
     8    7    9 ar 
     9    6   10 1  
    10    6   11 1  
@<TRIPOS>SUBSTRUCTURE
     1 PGA         1

