### 
### Created by X-TOOL on Fri Nov 18 17:04:38 2016
### 

@<TRIPOS>MOLECULE
4g0q_ligand
   34    35     1     0     0
SMALL
GAST_HUCK


@<TRIPOS>ATOM
      1 O3P        25.6290   34.4080   36.8730 O.co2     1 C5P        -0.5537
      2 P          25.4810   34.5760   38.4390 P.3       1 C5P         0.2008
      3 O1P        23.9140   34.3530   38.6060 O.co2     1 C5P        -0.5537
      4 O2P        25.9140   35.9330   38.8440 O.co2     1 C5P        -0.5537
      5 O5'        26.2960   33.3810   39.1870 O.3       1 C5P        -0.2734
      6 C5'        27.6120   33.5760   39.7320 C.3       1 C5P         0.1071
      7 C4'        28.2010   32.1930   40.2080 C.3       1 C5P         0.1180
      8 O4'        27.7720   31.0690   39.4110 O.3       1 C5P        -0.3377
      9 C3'        29.7320   32.0450   40.5230 C.3       1 C5P         0.1147
     10 O3'        30.2180   32.2160   41.7970 O.3       1 C5P        -0.3864
     11 C2'        30.1890   30.9060   39.5380 C.3       1 C5P         0.1370
     12 O2'        31.3570   30.2220   39.7860 O.3       1 C5P        -0.3838
     13 C1'        28.8430   30.1550   39.1380 C.3       1 C5P         0.1988
     14 N1         28.6180   29.4410   37.8430 N.am      1 C5P        -0.1787
     15 C2         28.4810   28.0230   37.6600 C.2       1 C5P         0.3024
     16 N3         28.3950   27.4610   36.3500 N.am      1 C5P        -0.1994
     17 C4         28.5410   28.2170   35.2950 C.cat     1 C5P         0.2477
     18 C5         28.8200   29.6250   35.4060 C.2       1 C5P         0.0021
     19 C6         28.8360   30.1830   36.6530 C.2       1 C5P         0.0347
     20 O2         28.2610   27.3520   38.6620 O.2       1 C5P        -0.3877
     21 N4         28.3620   27.6780   33.9620 N.pl3     1 C5P        -0.2260
     22 H1         27.5546   34.2632   40.5890 H         1 C5P         0.0639
     23 H2         28.2672   34.0061   38.9602 H         1 C5P         0.0639
     24 H3         27.7195   32.0478   41.1863 H         1 C5P         0.0650
     25 H4         30.1651   32.9419   40.0561 H         1 C5P         0.0648
     26 H5         29.8126   31.5821   42.3771 H         1 C5P         0.2100
     27 H6         30.4617   31.4460   38.6193 H         1 C5P         0.0674
     28 H7         31.4925   29.5721   39.1064 H         1 C5P         0.2101
     29 H8         28.7633   29.3479   39.8811 H         1 C5P         0.0976
     30 H9         28.2219   26.4823   36.2397 H         1 C5P         0.1927
     31 H10        29.0130   30.2287   34.5204 H         1 C5P         0.0163
     32 H11        29.0258   31.2520   36.7382 H         1 C5P         0.0999
     33 H12        28.4806   28.2872   33.1400 H         1 C5P         0.4596
     34 H13        28.1161   26.6857   33.8365 H         1 C5P         0.4596
@<TRIPOS>BOND
     1    1    2 ar 
     2    2    3 ar 
     3    2    4 ar 
     4    2    5 1  
     5    5    6 1  
     6    6    7 1  
     7    7    8 1  
     8    7    9 1  
     9    8   13 1  
    10    9   10 1  
    11    9   11 1  
    12   11   12 1  
    13   11   13 1  
    14   13   14 1  
    15   14   15 am 
    16   14   19 1  
    17   15   16 am 
    18   15   20 2  
    19   16   17 ar 
    20   17   18 1  
    21   17   21 ar 
    22   18   19 2  
    23    6   22 1  
    24    6   23 1  
    25    7   24 1  
    26    9   25 1  
    27   10   26 1  
    28   11   27 1  
    29   12   28 1  
    30   13   29 1  
    31   16   30 1  
    32   18   31 1  
    33   19   32 1  
    34   21   33 1  
    35   21   34 1  
@<TRIPOS>SUBSTRUCTURE
     1 C5P         1

