### 
### Created by X-TOOL on Fri Nov 18 17:51:19 2016
### 

@<TRIPOS>MOLECULE
4uof_ligand
   38    40     1     0     0
SMALL
GAST_HUCK


@<TRIPOS>ATOM
      1 PB          5.5510  -54.1320    5.5930 P.3       1 DAT         0.2069
      2 O1B         5.0450  -52.6870    5.5680 O.co2     1 DAT        -0.5891
      3 O2B         6.3270  -54.3740    6.9210 O.co2     1 DAT        -0.5891
      4 O3B         4.4270  -55.1240    5.4410 O.co2     1 DAT        -0.5891
      5 PA          7.0940  -55.6930    3.9030 P.3       1 DAT         0.3276
      6 O1A         6.0460  -56.7660    4.2170 O.co2     1 DAT        -0.5556
      7 O2A         7.3340  -55.6860    2.4500 O.co2     1 DAT        -0.5556
      8 O3A         6.5290  -54.3220    4.3500 O.3       1 DAT        -0.1548
      9 O5'         8.4250  -55.9590    4.6950 O.3       1 DAT        -0.2436
     10 C5'         8.3920  -56.6400    5.9380 C.3       1 DAT         0.1131
     11 C4'         9.6100  -56.1500    6.7750 C.3       1 DAT         0.1164
     12 O4'        10.7110  -56.2880    6.0880 O.3       1 DAT        -0.3389
     13 C3'         9.4980  -54.6340    6.9700 C.3       1 DAT         0.0890
     14 O3'         8.6890  -54.3470    8.0340 O.3       1 DAT        -0.3889
     15 C2'        10.9600  -54.2080    7.1580 C.3       1 DAT         0.0315
     16 C1'        11.6810  -55.1160    6.5140 C.3       1 DAT         0.1751
     17 N9         12.3110  -54.5710    5.3300 N.pl3     1 DAT        -0.1945
     18 C8         11.3360  -54.3740    4.3830 C.2       1 DAT         0.1122
     19 N7         11.9060  -53.8510    3.2740 N.2       1 DAT        -0.2958
     20 C5         13.2430  -53.7370    3.5130 C.ar      1 DAT         0.1045
     21 C6         14.2630  -53.2750    2.7370 C.ar      1 DAT         0.1298
     22 N6         14.2630  -52.7750    1.4060 N.pl3     1 DAT        -0.3152
     23 N1         15.5160  -53.2570    3.2260 N.ar      1 DAT        -0.2698
     24 C2         15.7580  -53.7060    4.4950 C.ar      1 DAT         0.0533
     25 N3         14.7360  -54.1600    5.2610 N.ar      1 DAT        -0.2714
     26 C4         13.4890  -54.1830    4.7830 C.ar      1 DAT         0.1612
     27 H           8.4623  -57.7253    5.7732 H         1 DAT         0.0648
     28 H           7.4558  -56.4094    6.4675 H         1 DAT         0.0648
     29 H           9.6605  -56.6850    7.7348 H         1 DAT         0.0650
     30 H           9.0787  -54.1548    6.0730 H         1 DAT         0.0622
     31 H           7.8226  -54.7034    7.8768 H         1 DAT         0.2099
     32 H          11.2224  -54.1963    8.2262 H         1 DAT         0.0345
     33 H          11.1274  -53.2093    6.7283 H         1 DAT         0.0345
     34 H          12.4602  -55.5029    7.1871 H         1 DAT         0.0969
     35 H          10.2781  -54.6015    4.5052 H         1 DAT         0.1349
     36 H          15.1443  -52.4648    0.9724 H         1 DAT         0.1820
     37 H          13.3817  -52.7230    0.8754 H         1 DAT         0.1820
     38 H          16.7680  -53.6988    4.8886 H         1 DAT         0.0996
@<TRIPOS>BOND
     1    1    2 ar 
     2    1    3 ar 
     3    1    4 ar 
     4    8    1 1  
     5    5    6 ar 
     6    5    7 ar 
     7    5    8 1  
     8    5    9 1  
     9    9   10 1  
    10   10   11 1  
    11   11   12 1  
    12   11   13 1  
    13   12   16 1  
    14   13   14 1  
    15   13   15 1  
    16   15   16 1  
    17   16   17 1  
    18   17   18 1  
    19   17   26 1  
    20   18   19 2  
    21   19   20 1  
    22   20   21 ar 
    23   20   26 ar 
    24   21   22 1  
    25   21   23 ar 
    26   23   24 ar 
    27   24   25 ar 
    28   25   26 ar 
    29   10   27 1  
    30   10   28 1  
    31   11   29 1  
    32   13   30 1  
    33   14   31 1  
    34   15   32 1  
    35   15   33 1  
    36   16   34 1  
    37   18   35 1  
    38   22   36 1  
    39   22   37 1  
    40   24   38 1  
@<TRIPOS>SUBSTRUCTURE
     1 DAT         1

