### 
### Created by X-TOOL on Fri Nov 18 14:01:03 2016
### 

@<TRIPOS>MOLECULE
1z6s_ligand
   35    37     1     0     0
SMALL
GAST_HUCK


@<TRIPOS>ATOM
      1 P          36.5640    3.2770   13.5170 P.3       1 AMP         0.2008
      2 O1P        35.0570    3.4010   13.6430 O.co2     1 AMP        -0.5537
      3 O2P        37.2200    4.1520   12.4810 O.co2     1 AMP        -0.5537
      4 O3P        37.1240    1.8710   13.6030 O.co2     1 AMP        -0.5537
      5 O5         37.0790    3.8790   14.9080 O.3       1 AMP        -0.2734
      6 C5         37.0180    5.2730   15.1930 C.3       1 AMP         0.1072
      7 C4         38.1040    5.5720   16.2110 C.3       1 AMP         0.1182
      8 O4         37.5740    5.4310   17.5400 O.3       1 AMP        -0.3365
      9 C3         39.2660    4.5790   16.0950 C.3       1 AMP         0.1149
     10 O3         40.5090    5.2760   15.9320 O.3       1 AMP        -0.3864
     11 C2         39.2570    3.7880   17.3970 C.3       1 AMP         0.1385
     12 O2         40.5890    3.4810   17.8430 O.3       1 AMP        -0.3836
     13 C1         38.5330    4.7340   18.3470 C.3       1 AMP         0.2010
     14 N9         37.8970    4.0440   19.5010 N.pl3     1 AMP        -0.1919
     15 C8         38.1490    2.7820   19.9340 C.2       1 AMP         0.1123
     16 N7         37.4050    2.4750   21.0100 N.2       1 AMP        -0.2958
     17 C5         36.6710    3.5590   21.2820 C.ar      1 AMP         0.1045
     18 C6         35.6800    3.8930   22.2950 C.ar      1 AMP         0.1298
     19 N6         35.3730    2.9460   23.2290 N.pl3     1 AMP        -0.3152
     20 N1         35.1250    5.1490   22.2450 N.ar      1 AMP        -0.2698
     21 C2         35.4600    6.0580   21.3070 C.ar      1 AMP         0.0533
     22 N3         36.3690    5.8070   20.3380 N.ar      1 AMP        -0.2714
     23 C4         36.9900    4.5930   20.2930 C.ar      1 AMP         0.1613
     24 H1         36.0321    5.5300   15.6076 H         1 AMP         0.0639
     25 H2         37.1923    5.8532   14.2749 H         1 AMP         0.0639
     26 H3         38.4725    6.5969   16.0567 H         1 AMP         0.0650
     27 H4         39.1108    3.9065   15.2385 H         1 AMP         0.0648
     28 H5         41.2169    4.6465   15.8619 H         1 AMP         0.2100
     29 H6         38.6958    2.8492   17.2804 H         1 AMP         0.0676
     30 H7         40.5445    2.9891   18.6545 H         1 AMP         0.2101
     31 H8         39.2580    5.4563   18.7502 H         1 AMP         0.0996
     32 H9         38.8634    2.1047   19.4684 H         1 AMP         0.1349
     33 H10        34.6761    3.1500   23.9595 H         1 AMP         0.1820
     34 H11        35.8382    2.0274   23.2032 H         1 AMP         0.1820
     35 H12        34.9808    7.0300   21.3308 H         1 AMP         0.0996
@<TRIPOS>BOND
     1    1    2 ar 
     2    1    3 ar 
     3    1    4 ar 
     4    1    5 1  
     5    5    6 1  
     6    6    7 1  
     7    7    8 1  
     8    7    9 1  
     9    8   13 1  
    10    9   10 1  
    11    9   11 1  
    12   11   12 1  
    13   11   13 1  
    14   13   14 1  
    15   14   15 1  
    16   14   23 1  
    17   15   16 2  
    18   16   17 1  
    19   17   18 ar 
    20   17   23 ar 
    21   18   19 1  
    22   18   20 ar 
    23   20   21 ar 
    24   21   22 ar 
    25   22   23 ar 
    26    6   24 1  
    27    6   25 1  
    28    7   26 1  
    29    9   27 1  
    30   10   28 1  
    31   11   29 1  
    32   12   30 1  
    33   13   31 1  
    34   15   32 1  
    35   19   33 1  
    36   19   34 1  
    37   21   35 1  
@<TRIPOS>SUBSTRUCTURE
     1 AMP         1

