### 
### Created by X-TOOL on Fri Nov 18 12:09:20 2016
### 

@<TRIPOS>MOLECULE
1drv_ligand
   72    76     1     0     0
SMALL
GAST_HUCK


@<TRIPOS>ATOM
      1 AP          6.4970   29.2330   18.0680 P.3       1 A3D         0.2972
      2 AO1         5.3980   30.0940   17.5830 O.co2     1 A3D        -0.6127
      3 AO2         6.1500   27.8390   17.7880 O.co2     1 A3D        -0.6127
      4 AO5         7.7020   29.5480   17.0490 O.3       1 A3D        -0.2476
      5 AC5         8.5670   28.5130   16.6890 C.3       1 A3D         0.1128
      6 AC4         9.4700   29.0540   15.6130 C.3       1 A3D         0.1189
      7 AO4        10.5320   28.1480   15.1970 O.3       1 A3D        -0.3364
      8 AC3         8.7450   29.3410   14.3100 C.3       1 A3D         0.1149
      9 AO3         9.4710   30.4400   13.7270 O.3       1 A3D        -0.3864
     10 AC2         8.9610   28.0290   13.5330 C.3       1 A3D         0.1385
     11 AO2         8.7910   28.0200   12.1220 O.3       1 A3D        -0.3836
     12 AC1        10.4430   27.9030   13.7930 C.3       1 A3D         0.2010
     13 AN9        10.7570   26.5140   13.6130 N.pl3     1 A3D        -0.1919
     14 AC8        10.0530   25.4580   14.1710 C.2       1 A3D         0.1123
     15 AN7        10.6750   24.3110   13.9940 N.2       1 A3D        -0.2958
     16 AC5        11.7870   24.6160   13.2010 C.ar      1 A3D         0.1045
     17 AC6        12.7970   23.8220   12.6320 C.ar      1 A3D         0.1298
     18 AN6        12.9190   22.4810   12.7890 N.pl3     1 A3D        -0.3152
     19 AN1        13.7270   24.4810   11.8820 N.ar      1 A3D        -0.2698
     20 AC2        13.6990   25.8180   11.7870 C.ar      1 A3D         0.0533
     21 AN3        12.7910   26.6600   12.2690 N.ar      1 A3D        -0.2714
     22 AC4        11.8560   25.9810   12.9580 C.ar      1 A3D         0.1613
     23 O3          7.0600   29.2950   19.4720 O.3       1 A3D        -0.1319
     24 NP          7.8060   30.2900   20.2670 P.3       1 A3D         0.2972
     25 NO1         6.6080   30.3520   21.1000 O.co2     1 A3D        -0.6127
     26 NO2         8.3120   31.5280   19.6720 O.co2     1 A3D        -0.6127
     27 NO5         8.9590   29.5430   21.0360 O.3       1 A3D        -0.2476
     28 NC5        10.2430   29.9480   20.4760 C.3       1 A3D         0.1128
     29 NC4        11.4100   29.2300   21.1560 C.3       1 A3D         0.1185
     30 NO4        12.1450   30.0880   22.0870 O.3       1 A3D        -0.3396
     31 NC3        10.9120   28.0460   21.9890 C.3       1 A3D         0.1146
     32 NO3        11.7480   26.8430   22.0890 O.3       1 A3D        -0.3864
     33 NC2        10.7110   28.7030   23.3330 C.3       1 A3D         0.1347
     34 NO2        10.7130   27.7190   24.3500 O.3       1 A3D        -0.3840
     35 NC1        11.9160   29.6350   23.4410 C.3       1 A3D         0.1849
     36 NN1        11.5890   30.7520   24.3630 N.pl3     1 A3D        -0.2488
     37 NC2        12.5450   31.1780   25.1900 C.2       1 A3D         0.0397
     38 NC3        12.5600   32.2140   26.0230 C.2       1 A3D         0.0130
     39 NC7        13.6550   32.5050   26.8740 C.2       1 A3D         0.0985
     40 NO7        13.4710   33.2660   27.8420 O.2       1 A3D        -0.4045
     41 NC8        14.9910   31.7760   26.7090 C.3       1 A3D         0.0028
     42 NC4        11.3770   32.8740   25.9620 C.3       1 A3D        -0.0196
     43 NC5        10.2740   32.5470   25.1700 C.2       1 A3D        -0.0793
     44 NC6        10.3830   31.3930   24.3650 C.2       1 A3D         0.0131
     45 H1          7.9933   27.6561   16.3062 H         1 A3D         0.0648
     46 H2          9.1618   28.1970   17.5587 H         1 A3D         0.0648
     47 H3          9.9159   29.9828   15.9984 H         1 A3D         0.0651
     48 H4          7.6787   29.5791   14.4373 H         1 A3D         0.0648
     49 H5          9.4460   31.1836   14.3179 H         1 A3D         0.2100
     50 H6          8.3667   27.2134   13.9707 H         1 A3D         0.0676
     51 H7          9.4010   28.6318   11.7267 H         1 A3D         0.2101
     52 H8         11.0644   28.5731   13.1808 H         1 A3D         0.0996
     53 H9          9.1024   25.5641   14.6917 H         1 A3D         0.1349
     54 H10        13.6936   21.9775   12.3335 H         1 A3D         0.1820
     55 H11        12.2371   21.9656   13.3638 H         1 A3D         0.1820
     56 H12        14.5232   26.2704   11.2475 H         1 A3D         0.0996
     57 H13        10.3646   31.0328   20.6116 H         1 A3D         0.0648
     58 H14        10.2547   29.7090   19.4023 H         1 A3D         0.0648
     59 H15        12.0960   28.8710   20.3746 H         1 A3D         0.0651
     60 H16         9.9436   27.7184   21.5830 H         1 A3D         0.0648
     61 H17        11.3110   26.1994   22.6343 H         1 A3D         0.2100
     62 H18         9.7691   29.2701   23.3675 H         1 A3D         0.0672
     63 H19        11.5452   27.2608   24.3441 H         1 A3D         0.2101
     64 H20        12.7979   29.0964   23.8180 H         1 A3D         0.0947
     65 H21        13.4572   30.5832   25.1815 H         1 A3D         0.1034
     66 H22        15.7046   32.1436   27.4611 H         1 A3D         0.0437
     67 H23        15.3901   31.9654   25.7016 H         1 A3D         0.0437
     68 H24        14.8384   30.6953   26.8458 H         1 A3D         0.0437
     69 H25        11.6400   33.9019   25.6718 H         1 A3D         0.0398
     70 H26        10.9964   32.8704   26.9940 H         1 A3D         0.0398
     71 H27         9.3706   33.1551   25.1735 H         1 A3D         0.0347
     72 H28         9.5442   31.0303   23.7727 H         1 A3D         0.0815
@<TRIPOS>BOND
     1    1    2 ar 
     2    1    3 ar 
     3    1    4 1  
     4    1   23 1  
     5    4    5 1  
     6    5    6 1  
     7    6    7 1  
     8    6    8 1  
     9    7   12 1  
    10    8    9 1  
    11    8   10 1  
    12   10   11 1  
    13   10   12 1  
    14   12   13 1  
    15   13   14 1  
    16   13   22 1  
    17   14   15 2  
    18   15   16 1  
    19   16   17 ar 
    20   16   22 ar 
    21   17   18 1  
    22   17   19 ar 
    23   19   20 ar 
    24   20   21 ar 
    25   21   22 ar 
    26   23   24 1  
    27   24   25 ar 
    28   24   26 ar 
    29   24   27 1  
    30   27   28 1  
    31   28   29 1  
    32   29   30 1  
    33   29   31 1  
    34   30   35 1  
    35   31   32 1  
    36   31   33 1  
    37   33   34 1  
    38   33   35 1  
    39   35   36 1  
    40   36   37 1  
    41   36   44 1  
    42   37   38 2  
    43   38   39 1  
    44   38   42 1  
    45   39   40 2  
    46   39   41 1  
    47   42   43 1  
    48   43   44 2  
    49    5   45 1  
    50    5   46 1  
    51    6   47 1  
    52    8   48 1  
    53    9   49 1  
    54   10   50 1  
    55   11   51 1  
    56   12   52 1  
    57   14   53 1  
    58   18   54 1  
    59   18   55 1  
    60   20   56 1  
    61   28   57 1  
    62   28   58 1  
    63   29   59 1  
    64   31   60 1  
    65   32   61 1  
    66   33   62 1  
    67   34   63 1  
    68   35   64 1  
    69   37   65 1  
    70   41   66 1  
    71   41   67 1  
    72   41   68 1  
    73   42   69 1  
    74   42   70 1  
    75   43   71 1  
    76   44   72 1  
@<TRIPOS>SUBSTRUCTURE
     1 A3D         1

