### 
### Created by X-TOOL on Fri Nov 18 14:34:34 2016
### 

@<TRIPOS>MOLECULE
2f9k_ligand
   22    22     1     0     0
SMALL
GAST_HUCK


@<TRIPOS>ATOM
      1 O17        16.6780   75.6210   24.1760 O.co2     1 ZOL        -0.5593
      2 P14        15.3220   75.5810   24.7890 P.3       1 ZOL         0.1130
      3 O16        15.1240   74.2770   25.6680 O.co2     1 ZOL        -0.5593
      4 O15        14.1300   75.5570   23.7330 O.co2     1 ZOL        -0.5593
      5 C8         15.0210   77.0200   25.8670 C.3       1 ZOL         0.2328
      6 P9         16.3800   77.1240   27.0700 P.3       1 ZOL         0.1130
      7 O10        16.0060   78.3290   28.0570 O.co2     1 ZOL        -0.5593
      8 O11        16.2000   75.8340   27.9790 O.co2     1 ZOL        -0.5593
      9 O12        17.7260   77.2050   26.4520 O.co2     1 ZOL        -0.5593
     10 O13        13.7750   76.8000   26.5490 O.3       1 ZOL        -0.3574
     11 C7         14.9610   78.2850   24.9600 C.3       1 ZOL         0.1185
     12 N15        14.6850   79.5740   25.5980 N.pl3     1 ZOL        -0.2464
     13 C16        13.6500   79.8790   26.3320 C.2       1 ZOL         0.0976
     14 N17        13.7430   81.0720   26.6940 N.2       1 ZOL        -0.3302
     15 C18        14.9480   81.6670   26.1730 C.2       1 ZOL        -0.0236
     16 C19        15.4800   80.6270   25.4920 C.2       1 ZOL         0.0365
     17 H1         13.8343   76.0052   27.0660 H         1 ZOL         0.2134
     18 H2         14.1727   78.1145   24.2120 H         1 ZOL         0.0685
     19 H3         15.9339   78.3717   24.4542 H         1 ZOL         0.0685
     20 H4         12.8358   79.2027   26.5881 H         1 ZOL         0.1215
     21 H5         15.3275   82.6804   26.2949 H         1 ZOL         0.0444
     22 H6         16.4188   80.6519   24.9407 H         1 ZOL         0.0860
@<TRIPOS>BOND
     1    1    2 ar 
     2    2    3 ar 
     3    2    4 ar 
     4    2    5 1  
     5    5    6 1  
     6    5   10 1  
     7    5   11 1  
     8    6    7 ar 
     9    6    8 ar 
    10    6    9 ar 
    11   11   12 1  
    12   12   13 1  
    13   12   16 1  
    14   13   14 2  
    15   14   15 1  
    16   15   16 2  
    17   10   17 1  
    18   11   18 1  
    19   11   19 1  
    20   13   20 1  
    21   15   21 1  
    22   16   22 1  
@<TRIPOS>SUBSTRUCTURE
     1 ZOL         1

