### 
### Created by X-TOOL on Fri Nov 18 15:35:46 2016
### 

@<TRIPOS>MOLECULE
3djv_ligand
   33    34     1     0     0
SMALL
GAST_HUCK


@<TRIPOS>ATOM
      1 P          32.0930   38.1280   12.1670 P.3       1 C3P         0.2013
      2 O1P        32.9580   39.3740   12.1560 O.co2     1 C3P        -0.5537
      3 O2P        32.8480   36.8280   12.0200 O.co2     1 C3P        -0.5537
      4 O3P        31.0490   38.1190   13.2580 O.co2     1 C3P        -0.5537
      5 O5'        31.2960   42.2590    8.9820 O.3       1 C3P        -0.3924
      6 C5'        30.9030   41.5590   10.1730 C.3       1 C3P         0.0734
      7 C4'        30.3010   40.1870    9.8600 C.3       1 C3P         0.1183
      8 O4'        29.6400   40.1940    8.5890 O.3       1 C3P        -0.3353
      9 C3'        31.3530   39.0760    9.7820 C.3       1 C3P         0.1485
     10 O3'        31.1870   38.1560   10.8380 O.3       1 C3P        -0.2675
     11 C2'        31.0940   38.3500    8.4750 C.3       1 C3P         0.1446
     12 O2'        32.3320   37.8720    7.9670 O.3       1 C3P        -0.3831
     13 C1'        30.5630   39.5450    7.7110 C.3       1 C3P         0.2112
     14 N1         30.1230   39.5120    6.3130 N.am      1 C3P        -0.1467
     15 C2         29.7620   38.3900    5.5080 C.2       1 C3P         0.3488
     16 N3         29.4220   38.6270    4.2200 N.am      1 C3P        -0.1924
     17 C4         29.4280   39.8770    3.6870 C.2       1 C3P         0.0853
     18 C5         29.7910   40.9650    4.4590 C.2       1 C3P         0.0019
     19 C6         30.1350   40.7390    5.7740 C.2       1 C3P         0.0739
     20 O2         29.7370   37.2070    5.9270 O.2       1 C3P        -0.3777
     21 N4         29.0840   40.0930    2.3980 N.2       1 C3P        -0.4291
     22 H1         30.5362   42.3877    8.4264 H         1 C3P         0.2095
     23 H2         30.1543   42.1614   10.7082 H         1 C3P         0.0584
     24 H3         31.7876   41.4211   10.8121 H         1 C3P         0.0584
     25 H4         29.5761   39.9423   10.6504 H         1 C3P         0.0650
     26 H5         32.3674   39.5008    9.8054 H         1 C3P         0.0704
     27 H6         30.3639   37.5312    8.5551 H         1 C3P         0.0681
     28 H7         32.9168   38.6059    7.8189 H         1 C3P         0.2102
     29 H8         31.4340   40.2146    7.6561 H         1 C3P         0.1013
     30 H9         29.1573   37.8561    3.6406 H         1 C3P         0.2412
     31 H10        29.8046   41.9703    4.0404 H         1 C3P         0.0330
     32 H11        30.4260   41.5847    6.3954 H         1 C3P         0.1288
     33 H12        29.0955   41.0287    2.0233 H         1 C3P         0.0340
@<TRIPOS>BOND
     1    1    2 ar 
     2    1    3 ar 
     3    1    4 ar 
     4   10    1 1  
     5    6    5 1  
     6    7    6 1  
     7    7    8 1  
     8    9    7 1  
     9    8   13 1  
    10    9   10 1  
    11    9   11 1  
    12   11   12 1  
    13   11   13 1  
    14   13   14 1  
    15   14   15 am 
    16   14   19 1  
    17   15   16 am 
    18   15   20 2  
    19   16   17 1  
    20   17   18 1  
    21   17   21 2  
    22   18   19 2  
    23    5   22 1  
    24    6   23 1  
    25    6   24 1  
    26    7   25 1  
    27    9   26 1  
    28   11   27 1  
    29   12   28 1  
    30   13   29 1  
    31   16   30 1  
    32   18   31 1  
    33   19   32 1  
    34   21   33 1  
@<TRIPOS>SUBSTRUCTURE
     1 C3P         1

