### 
### Created by X-TOOL on Fri Nov 18 14:55:57 2016
### 

@<TRIPOS>MOLECULE
2q8m_ligand
   35    37     1     0     0
SMALL
GAST_HUCK


@<TRIPOS>ATOM
      1 P         114.2750   58.8120   21.5190 P.3       1 AMP         0.2008
      2 O1P       113.7420   59.8080   20.5090 O.co2     1 AMP        -0.5537
      3 O2P       113.2740   57.7190   21.8450 O.co2     1 AMP        -0.5537
      4 O3P       114.8280   59.4900   22.7630 O.co2     1 AMP        -0.5537
      5 O5'       115.5370   58.0680   20.7980 O.3       1 AMP        -0.2734
      6 C5'       116.6740   58.8230   20.3280 C.3       1 AMP         0.1072
      7 C4'       117.3150   58.1320   19.1420 C.3       1 AMP         0.1182
      8 O4'       117.9040   56.8670   19.5580 O.3       1 AMP        -0.3365
      9 C3'       116.3680   57.7450   18.0180 C.3       1 AMP         0.1149
     10 O3'       116.1330   58.8340   17.1370 O.3       1 AMP        -0.3864
     11 C2'       117.1570   56.6390   17.3340 C.3       1 AMP         0.1385
     12 O2'       118.2330   57.1650   16.5820 O.3       1 AMP        -0.3836
     13 C1'       117.7000   55.8880   18.5490 C.3       1 AMP         0.2010
     14 N9        116.7240   54.9200   19.0510 N.pl3     1 AMP        -0.1919
     15 C8        115.9210   55.0400   20.1590 C.2       1 AMP         0.1123
     16 N7        115.1170   54.0190   20.3430 N.2       1 AMP        -0.2958
     17 C5        115.4150   53.1660   19.2910 C.ar      1 AMP         0.1045
     18 C6        114.9050   51.9130   18.9190 C.ar      1 AMP         0.1298
     19 N6        113.9380   51.2760   19.5890 N.pl3     1 AMP        -0.3152
     20 N1        115.4230   51.3290   17.8170 N.ar      1 AMP        -0.2698
     21 C2        116.3820   51.9700   17.1420 C.ar      1 AMP         0.0533
     22 N3        116.9410   53.1500   17.3900 N.ar      1 AMP        -0.2714
     23 C4        116.4080   53.7040   18.4910 C.ar      1 AMP         0.1613
     24 H1        117.4119   58.9091   21.1392 H         1 AMP         0.0639
     25 H2        116.3421   59.8273   20.0260 H         1 AMP         0.0639
     26 H3        118.0927   58.7993   18.7422 H         1 AMP         0.0650
     27 H4        115.4087   57.3745   18.4084 H         1 AMP         0.0648
     28 H5        115.7470   59.5542   17.6215 H         1 AMP         0.2100
     29 H6        116.5191   56.0067   16.6989 H         1 AMP         0.0676
     30 H7        117.8952   57.7523   15.9160 H         1 AMP         0.2101
     31 H8        118.6413   55.3782   18.2961 H         1 AMP         0.0996
     32 H9        115.9489   55.9025   20.8233 H         1 AMP         0.1349
     33 H10       113.6063   50.3565   19.2644 H         1 AMP         0.1820
     34 H11       113.5252   51.7051   20.4295 H         1 AMP         0.1820
     35 H12       116.7579   51.4532   16.2664 H         1 AMP         0.0996
@<TRIPOS>BOND
     1    1    2 ar 
     2    1    3 ar 
     3    1    4 ar 
     4    1    5 1  
     5    5    6 1  
     6    6    7 1  
     7    7    8 1  
     8    7    9 1  
     9    8   13 1  
    10    9   10 1  
    11    9   11 1  
    12   11   12 1  
    13   11   13 1  
    14   13   14 1  
    15   14   15 1  
    16   14   23 1  
    17   15   16 2  
    18   16   17 1  
    19   17   18 ar 
    20   17   23 ar 
    21   18   19 1  
    22   18   20 ar 
    23   20   21 ar 
    24   21   22 ar 
    25   22   23 ar 
    26    6   24 1  
    27    6   25 1  
    28    7   26 1  
    29    9   27 1  
    30   10   28 1  
    31   11   29 1  
    32   12   30 1  
    33   13   31 1  
    34   15   32 1  
    35   19   33 1  
    36   19   34 1  
    37   21   35 1  
@<TRIPOS>SUBSTRUCTURE
     1 AMP         1

