### 
### Created by X-TOOL on Fri Nov 18 17:34:24 2016
### 

@<TRIPOS>MOLECULE
4lhv_ligand
   41    43     1     0     0
SMALL
GAST_HUCK


@<TRIPOS>ATOM
      1 PB         -7.0760   36.3730   30.2070 P.3       1 GDP         0.2069
      2 O1B        -6.2400   36.7200   31.4380 O.co2     1 GDP        -0.5891
      3 O2B        -6.3540   35.2560   29.5300 O.co2     1 GDP        -0.5891
      4 O3B        -8.5230   35.9550   30.4020 O.co2     1 GDP        -0.5891
      5 O3A        -7.1450   37.5560   29.1370 O.3       1 GDP        -0.1548
      6 PA         -6.2680   38.9100   29.1240 P.3       1 GDP         0.3276
      7 O1A        -4.8340   38.5650   29.1550 O.co2     1 GDP        -0.5556
      8 O2A        -6.6730   39.8670   30.2350 O.co2     1 GDP        -0.5556
      9 O5'        -6.7630   39.5950   27.7810 O.3       1 GDP        -0.2436
     10 C5'        -6.5910   38.9240   26.5330 C.3       1 GDP         0.1132
     11 C4'        -6.4560   39.9440   25.4170 C.3       1 GDP         0.1190
     12 O4'        -7.6910   40.6390   25.2940 O.3       1 GDP        -0.3347
     13 C3'        -5.4050   41.0220   25.6420 C.3       1 GDP         0.1151
     14 O3'        -4.8410   41.3690   24.3700 O.3       1 GDP        -0.3864
     15 C2'        -6.2080   42.1940   26.1540 C.3       1 GDP         0.1407
     16 O2'        -5.6410   43.4660   25.8950 O.3       1 GDP        -0.3835
     17 C1'        -7.5270   42.0450   25.4270 C.3       1 GDP         0.2218
     18 N9         -8.6970   42.5480   26.2060 N.pl3     1 GDP        -0.0954
     19 C8         -9.0500   42.1690   27.4610 C.2       1 GDP         0.1855
     20 N7        -10.1610   42.8180   27.8530 N.2       1 GDP        -0.1929
     21 C5        -10.5370   43.6020   26.8300 C.2       1 GDP         0.2558
     22 C6        -11.6310   44.5280   26.5540 C.2       1 GDP         0.2628
     23 O6        -12.5330   44.7540   27.3880 O.2       1 GDP        -0.3594
     24 N1        -11.6530   45.1190   25.3580 N.am      1 GDP        -0.2478
     25 C2        -10.7210   44.9050   24.4270 C.cat     1 GDP         0.2041
     26 N2        -10.8490   45.5410   23.2900 N.pl3     1 GDP        -0.3327
     27 N3         -9.7020   44.0670   24.5680 N.pl3     1 GDP        -0.1901
     28 C4         -9.5640   43.4230   25.7520 C.2       1 GDP         0.3268
     29 H1         -7.4640   38.2835   26.3390 H         1 GDP         0.0648
     30 H2         -5.6832   38.3042   26.5733 H         1 GDP         0.0648
     31 H3         -6.2236   39.4087   24.4846 H         1 GDP         0.0651
     32 H4         -4.6266   40.7073   26.3527 H         1 GDP         0.0648
     33 H5         -4.1814   42.0421   24.4903 H         1 GDP         0.2100
     34 H6         -6.3522   42.0970   27.2402 H         1 GDP         0.0677
     35 H7         -5.5505   43.5861   24.9570 H         1 GDP         0.2101
     36 H8         -7.4854   42.5462   24.4487 H         1 GDP         0.1021
     37 H9         -8.5096   41.4418   28.0653 H         1 GDP         0.1823
     38 H10       -12.4005   45.7499   25.1501 H         1 GDP         0.1819
     39 H11       -10.1528   45.4058   22.5431 H         1 GDP         0.1774
     40 H12       -11.6459   46.1766   23.1423 H         1 GDP         0.1774
     41 H13        -9.0348   43.9105   23.7991 H         1 GDP         0.2519
@<TRIPOS>BOND
     1    1    2 ar 
     2    1    3 ar 
     3    1    4 ar 
     4    1    5 1  
     5    5    6 1  
     6    6    7 ar 
     7    6    8 ar 
     8    6    9 1  
     9    9   10 1  
    10   10   11 1  
    11   11   12 1  
    12   11   13 1  
    13   12   17 1  
    14   13   14 1  
    15   13   15 1  
    16   15   16 1  
    17   15   17 1  
    18   17   18 1  
    19   18   19 1  
    20   18   28 1  
    21   19   20 2  
    22   20   21 1  
    23   21   22 1  
    24   21   28 2  
    25   22   23 2  
    26   22   24 am 
    27   24   25 ar 
    28   25   26 ar 
    29   25   27 ar 
    30   27   28 1  
    31   10   29 1  
    32   10   30 1  
    33   11   31 1  
    34   13   32 1  
    35   14   33 1  
    36   15   34 1  
    37   16   35 1  
    38   17   36 1  
    39   19   37 1  
    40   24   38 1  
    41   26   39 1  
    42   26   40 1  
    43   27   41 1  
@<TRIPOS>SUBSTRUCTURE
     1 GDP         1

