### 
### Created by X-TOOL on Fri Nov 18 17:49:32 2016
### 

@<TRIPOS>MOLECULE
3wgg_ligand
   71    75     1     0     0
SMALL
GAST_HUCK


@<TRIPOS>ATOM
      1 PA          4.5600   27.0870   13.9620 P.3       1 MOL         0.2972
      2 O1A         3.3900   27.4530   14.8480 O.co2     1 MOL        -0.6127
      3 O2A         5.2650   28.1460   13.1310 O.co2     1 MOL        -0.6127
      4 O5B         4.1140   25.8390   13.0430 O.3       1 MOL        -0.2476
      5 C5B         3.4710   24.6600   13.5290 C.3       1 MOL         0.1128
      6 C4B         2.5820   24.2390   12.3670 C.3       1 MOL         0.1189
      7 O4B         2.0220   22.9480   12.5240 O.3       1 MOL        -0.3364
      8 C3B         1.4100   25.1930   12.2130 C.3       1 MOL         0.1149
      9 O3B         1.4510   25.5890   10.8350 O.3       1 MOL        -0.3864
     10 C2B         0.1850   24.3160   12.5300 C.3       1 MOL         0.1385
     11 O2B        -0.9310   24.6480   11.6920 O.3       1 MOL        -0.3836
     12 C1B         0.6720   22.9620   12.0970 C.3       1 MOL         0.2010
     13 N9A         0.0610   21.8390   12.8020 N.pl3     1 MOL        -0.1919
     14 C8A        -0.3780   21.7610   14.0780 C.2       1 MOL         0.1123
     15 N7A        -0.7910   20.4850   14.2890 N.2       1 MOL        -0.2958
     16 C5A        -0.6230   19.8040   13.1260 C.ar      1 MOL         0.1045
     17 C6A        -0.8760   18.5070   12.7050 C.ar      1 MOL         0.1298
     18 N6A        -1.4150   17.5960   13.5430 N.pl3     1 MOL        -0.3152
     19 N1A        -0.5890   18.1590   11.4450 N.ar      1 MOL        -0.2698
     20 C2A        -0.0870   19.0270   10.5480 C.ar      1 MOL         0.0533
     21 N3A         0.1350   20.2850   10.9050 N.ar      1 MOL        -0.2714
     22 C4A        -0.1100   20.6790   12.1820 C.ar      1 MOL         0.1613
     23 O3          5.7020   26.4300   14.9370 O.3       1 MOL        -0.1319
     24 PN          7.2040   26.1690   14.3920 P.3       1 MOL         0.2972
     25 O1N         8.0430   27.3780   14.6710 O.co2     1 MOL        -0.6127
     26 O2N         7.1650   25.6980   12.9520 O.co2     1 MOL        -0.6127
     27 O5D         7.7510   25.0170   15.3960 O.3       1 MOL        -0.2476
     28 C5D         7.3120   23.6450   15.3930 C.3       1 MOL         0.1128
     29 C4D         7.9270   22.8810   16.5820 C.3       1 MOL         0.1185
     30 O4D         9.2210   23.4390   16.9080 O.3       1 MOL        -0.3397
     31 C3D         7.1420   22.9610   17.8750 C.3       1 MOL         0.1146
     32 O3D         7.3620   21.7410   18.6270 O.3       1 MOL        -0.3864
     33 C2D         7.8180   24.0800   18.6400 C.3       1 MOL         0.1347
     34 O2D         7.6730   23.7370   20.0050 O.3       1 MOL        -0.3840
     35 C1D         9.2850   24.0730   18.1900 C.3       1 MOL         0.1845
     36 N1N        10.2200   23.2390   19.0140 N.pl3     1 MOL        -0.2499
     37 C2N        10.7690   23.7590   20.1690 C.2       1 MOL         0.0396
     38 C3N        11.6230   23.0850   20.9670 C.2       1 MOL         0.0299
     39 C7N        12.1170   23.7540   22.1780 C.2       1 MOL         0.1716
     40 O7N        11.5920   24.7900   22.5790 O.2       1 MOL        -0.4080
     41 N7N        13.1710   23.2050   22.7830 N.am      1 MOL        -0.3073
     42 C4N        12.0760   21.6830   20.6000 C.3       1 MOL        -0.0184
     43 C5N        11.4570   21.2280   19.2870 C.2       1 MOL        -0.0795
     44 C6N        10.6020   21.9830   18.5780 C.2       1 MOL         0.0125
     45 H           2.8709   24.8795   14.4244 H         1 MOL         0.0648
     46 H           4.2080   23.8781   13.7642 H         1 MOL         0.0648
     47 H           3.1900   24.2546   11.4505 H         1 MOL         0.0651
     48 H           1.4686   26.0634   12.8830 H         1 MOL         0.0648
     49 H           0.7396   26.1936   10.6591 H         1 MOL         0.2100
     50 H          -0.0922   24.3570   13.5937 H         1 MOL         0.0676
     51 H          -0.6929   24.5149   10.7820 H         1 MOL         0.2101
     52 H           0.5652   22.8394   11.0091 H         1 MOL         0.0996
     53 H          -0.3969   22.5728   14.8037 H         1 MOL         0.1349
     54 H          -1.5963   16.6371   13.2136 H         1 MOL         0.1820
     55 H          -1.6449   17.8599   14.5117 H         1 MOL         0.1820
     56 H           0.1349   18.6999    9.5386 H         1 MOL         0.0996
     57 H           7.6255   23.1663   14.4536 H         1 MOL         0.0648
     58 H           6.2152   23.6153   15.4715 H         1 MOL         0.0648
     59 H           8.0320   21.8255   16.2907 H         1 MOL         0.0651
     60 H           6.0715   23.1481   17.7048 H         1 MOL         0.0648
     61 H           6.8739   21.7798   19.4411 H         1 MOL         0.2100
     62 H           7.3563   25.0569   18.4341 H         1 MOL         0.0672
     63 H           8.0926   22.9001   20.1664 H         1 MOL         0.2101
     64 H           9.6673   25.1025   18.1275 H         1 MOL         0.0946
     65 H          10.4964   24.7743   20.4531 H         1 MOL         0.1020
     66 H          13.5456   23.6222   23.6110 H         1 MOL         0.1788
     67 H          13.5868   22.3762   22.4086 H         1 MOL         0.1788
     68 H          11.7743   20.9886   21.3979 H         1 MOL         0.0398
     69 H          13.1715   21.6747   20.5015 H         1 MOL         0.0398
     70 H          11.7197   20.2431   18.9037 H         1 MOL         0.0345
     71 H          10.2014   21.5987   17.6411 H         1 MOL         0.0814
@<TRIPOS>BOND
     1    1    2 ar 
     2    1    3 ar 
     3    1    4 1  
     4    1   23 1  
     5    4    5 1  
     6    5    6 1  
     7    6    7 1  
     8    6    8 1  
     9    7   12 1  
    10    8    9 1  
    11    8   10 1  
    12   10   11 1  
    13   10   12 1  
    14   12   13 1  
    15   13   14 1  
    16   13   22 1  
    17   14   15 2  
    18   15   16 1  
    19   16   17 ar 
    20   16   22 ar 
    21   17   18 1  
    22   17   19 ar 
    23   19   20 ar 
    24   20   21 ar 
    25   21   22 ar 
    26   23   24 1  
    27   24   25 ar 
    28   24   26 ar 
    29   24   27 1  
    30   27   28 1  
    31   28   29 1  
    32   29   30 1  
    33   29   31 1  
    34   30   35 1  
    35   31   32 1  
    36   31   33 1  
    37   33   34 1  
    38   33   35 1  
    39   35   36 1  
    40   36   37 1  
    41   36   44 1  
    42   37   38 2  
    43   38   39 1  
    44   38   42 1  
    45   39   40 2  
    46   39   41 am 
    47   42   43 1  
    48   43   44 2  
    49    5   45 1  
    50    5   46 1  
    51    6   47 1  
    52    8   48 1  
    53    9   49 1  
    54   10   50 1  
    55   11   51 1  
    56   12   52 1  
    57   14   53 1  
    58   18   54 1  
    59   18   55 1  
    60   20   56 1  
    61   28   57 1  
    62   28   58 1  
    63   29   59 1  
    64   31   60 1  
    65   32   61 1  
    66   33   62 1  
    67   34   63 1  
    68   35   64 1  
    69   37   65 1  
    70   41   66 1  
    71   41   67 1  
    72   42   68 1  
    73   42   69 1  
    74   43   70 1  
    75   44   71 1  
@<TRIPOS>SUBSTRUCTURE
     1 MOL         1

