### 
### Created by X-TOOL on Mon Nov 21 14:23:31 2016
### 

@<TRIPOS>MOLECULE
2ypi_ligand
   11    10     1     0     0
SMALL
GAST_HUCK


@<TRIPOS>ATOM
      1 P          93.6280   42.7410   47.7230 P.3       1 PGA         0.2032
      2 O4         93.8770   44.2520   47.5700 O.co2     1 PGA        -0.5536
      3 O5         93.1120   42.2370   46.3890 O.co2     1 PGA        -0.5536
      4 O6         94.7130   41.9010   48.3330 O.co2     1 PGA        -0.5536
      5 O3         92.1590   42.7410   48.4850 O.3       1 PGA        -0.2622
      6 C2         92.1480   42.7410   49.8570 C.3       1 PGA         0.1305
      7 C1         90.7180   43.0770   50.3910 C.2       1 PGA         0.0653
      8 O1         89.8010   43.5800   49.6670 O.co2     1 PGA        -0.5663
      9 O2         90.7130   42.9090   51.7250 O.co2     1 PGA        -0.5663
     10 H1         92.8587   43.4956   50.2251 H         1 PGA         0.0783
     11 H2         92.4467   41.7472   50.2218 H         1 PGA         0.0783
@<TRIPOS>BOND
     1    1    2 ar 
     2    1    3 ar 
     3    1    4 ar 
     4    1    5 1  
     5    5    6 1  
     6    6    7 1  
     7    7    8 ar 
     8    7    9 ar 
     9    6   10 1  
    10    6   11 1  
@<TRIPOS>SUBSTRUCTURE
     1 PGA         1

