### 
### Created by X-TOOL on Fri Nov 18 16:21:37 2016
### 

@<TRIPOS>MOLECULE
3uj9_ligand
   24    23     1     0     0
SMALL
GAST_HUCK


@<TRIPOS>ATOM
      1 P1         15.4720   10.6730   19.8690 P.3       1 PC          0.2009
      2 O1         16.0030   10.0980   21.1770 O.co2     1 PC         -0.5537
      3 O3         15.1980    9.6010   18.8470 O.co2     1 PC         -0.5537
      4 O4         14.2740   11.5630   20.1040 O.co2     1 PC         -0.5537
      5 O2         16.6170   11.6000   19.3200 O.3       1 PC         -0.2708
      6 C1         16.4120   12.4220   18.1770 C.3       1 PC          0.1181
      7 C2         17.6350   13.2540   17.7630 C.3       1 PC         -0.0024
      8 N1         18.0110   14.4110   18.6370 N.4       1 PC          0.2387
      9 C3         16.7920   15.3040   18.7980 C.3       1 PC         -0.0417
     10 C4         19.1690   15.0540   18.0350 C.3       1 PC         -0.0417
     11 C5         18.3740   13.9700   19.9240 C.3       1 PC         -0.0417
     12 H1         15.5842   13.1129   18.3947 H         1 PC          0.0666
     13 H2         16.1359   11.7735   17.3325 H         1 PC          0.0666
     14 H3         17.4379   13.6516   16.7565 H         1 PC          0.0841
     15 H4         18.4990   12.5743   17.7261 H         1 PC          0.0841
     16 H5         17.0476   16.1615   19.4379 H         1 PC          0.0778
     17 H6         15.9761   14.7306   19.2621 H         1 PC          0.0778
     18 H7         16.4700   15.6665   17.8106 H         1 PC          0.0778
     19 H8         19.9938   14.3299   17.9621 H         1 PC          0.0778
     20 H9         19.4817   15.9044   18.6587 H         1 PC          0.0778
     21 H10        18.9070   15.4137   17.0290 H         1 PC          0.0778
     22 H11        17.5123   13.4793   20.4000 H         1 PC          0.0778
     23 H12        18.6873   14.8315   20.5320 H         1 PC          0.0778
     24 H13        19.2059   13.2547   19.8454 H         1 PC          0.0778
@<TRIPOS>BOND
     1    1    2 ar 
     2    1    3 ar 
     3    1    4 ar 
     4    1    5 1  
     5    5    6 1  
     6    6    7 1  
     7    7    8 1  
     8    8    9 1  
     9    8   10 1  
    10    8   11 1  
    11    6   12 1  
    12    6   13 1  
    13    7   14 1  
    14    7   15 1  
    15    9   16 1  
    16    9   17 1  
    17    9   18 1  
    18   10   19 1  
    19   10   20 1  
    20   10   21 1  
    21   11   22 1  
    22   11   23 1  
    23   11   24 1  
@<TRIPOS>SUBSTRUCTURE
     1 PC          1

