### 
### Created by X-TOOL on Fri Nov 18 15:28:09 2016
### 

@<TRIPOS>MOLECULE
2zz2_ligand
   35    36     1     0     0
SMALL
GAST_HUCK


@<TRIPOS>ATOM
      1 O3P        25.8050  -15.4430    9.0620 O.co2     1 6CN        -0.5537
      2 P          24.4900  -16.1550    8.8290 P.3       1 6CN         0.2008
      3 O1P        23.3070  -15.2400    8.7140 O.co2     1 6CN        -0.5537
      4 O2P        24.5930  -17.1590    7.6890 O.co2     1 6CN        -0.5537
      5 O5'        24.1170  -17.0330   10.1690 O.3       1 6CN        -0.2734
      6 C5'        25.1600  -17.6320   10.9430 C.3       1 6CN         0.1071
      7 C4'        24.4090  -18.2730   12.1140 C.3       1 6CN         0.1174
      8 C3'        23.8780  -17.2370   13.0910 C.3       1 6CN         0.1141
      9 O3'        22.7500  -17.8640   13.7770 O.3       1 6CN        -0.3864
     10 C2'        25.0390  -17.0990   14.0880 C.3       1 6CN         0.1309
     11 O2'        24.5610  -16.6630   15.3590 O.3       1 6CN        -0.3844
     12 O4'        25.3610  -19.0800   12.8470 O.3       1 6CN        -0.3432
     13 C1'        25.5680  -18.5160   14.1690 C.3       1 6CN         0.1774
     14 N1         27.0110  -18.5990   14.5000 N.am      1 6CN        -0.1965
     15 C6         27.3750  -19.3010   15.6280 C.3       1 6CN         0.1886
     16 C5         28.7370  -19.4050   15.9670 C.3       1 6CN         0.0899
     17 C4         29.6780  -18.8040   15.1420 C.2       1 6CN         0.2087
     18 O4         30.9340  -18.8710   15.3240 O.2       1 6CN        -0.3867
     19 N3         29.2650  -18.1350   14.0230 N.am      1 6CN        -0.1849
     20 C2         27.9490  -18.0470   13.7040 C.2       1 6CN         0.2943
     21 O2         27.6390  -17.3830   12.6930 O.2       1 6CN        -0.3912
     22 C7         26.7500  -20.6300   15.6300 C.1       1 6CN         0.1208
     23 N8         26.3720  -21.7260   15.5170 N.1       1 6CN        -0.3009
     24 H1         25.8712  -16.8725   11.2999 H         1 6CN         0.0639
     25 H2         25.6982  -18.3918   10.3573 H         1 6CN         0.0639
     26 H3         23.5813  -18.8895   11.7334 H         1 6CN         0.0650
     27 H4         23.6014  -16.2843   12.6157 H         1 6CN         0.0648
     28 H5         22.0876  -18.1048   13.1400 H         1 6CN         0.2100
     29 H6         25.8069  -16.4031   13.7191 H         1 6CN         0.0668
     30 H7         25.2919  -16.5837   15.9608 H         1 6CN         0.2101
     31 H8         24.9975  -19.0785   14.9227 H         1 6CN         0.0896
     32 H9         26.9223  -18.7427   16.4607 H         1 6CN         0.0888
     33 H10        28.9796  -20.4772   16.0070 H         1 6CN         0.0552
     34 H11        28.8559  -18.9645   16.9679 H         1 6CN         0.0552
     35 H12        29.9444  -17.7033   13.4297 H         1 6CN         0.2254
@<TRIPOS>BOND
     1    1    2 ar 
     2    2    3 ar 
     3    2    4 ar 
     4    2    5 1  
     5    5    6 1  
     6    6    7 1  
     7    7    8 1  
     8    7   12 1  
     9    8    9 1  
    10    8   10 1  
    11   10   11 1  
    12   10   13 1  
    13   12   13 1  
    14   13   14 1  
    15   14   15 1  
    16   14   20 am 
    17   15   16 1  
    18   15   22 1  
    19   16   17 1  
    20   17   18 2  
    21   17   19 am 
    22   19   20 am 
    23   20   21 2  
    24   22   23 3  
    25    6   24 1  
    26    6   25 1  
    27    7   26 1  
    28    8   27 1  
    29    9   28 1  
    30   10   29 1  
    31   11   30 1  
    32   13   31 1  
    33   15   32 1  
    34   16   33 1  
    35   16   34 1  
    36   19   35 1  
@<TRIPOS>SUBSTRUCTURE
     1 6CN         1

