### 
### Created by X-TOOL on Fri Nov 18 14:28:49 2016
### 

@<TRIPOS>MOLECULE
2fzc_ligand
   28    27     1     0     0
SMALL
GAST_HUCK


@<TRIPOS>ATOM
      1 OAD        43.9000   28.8450   19.8860 O.co2     1 EOP        -0.5606
      2 PAR        45.0640   29.7360   19.2190 P.3       1 EOP         0.0776
      3 OAH        44.9990   31.1810   19.9280 O.co2     1 EOP        -0.5606
      4 OAG        46.3990   29.1130   19.3640 O.co2     1 EOP        -0.5606
      5 CAL        44.6130   29.9730   17.4830 C.3       1 EOP         0.1083
      6 CAP        43.1100   29.9490   17.1570 C.2       1 EOP         0.1926
      7 OAB        42.5070   30.9910   16.9300 O.2       1 EOP        -0.3955
      8 NAN        42.5660   28.7380   17.1040 N.am      1 EOP        -0.2839
      9 CAJ        41.1560   28.4780   16.7570 C.3       1 EOP         0.0510
     10 CAI        40.2370   28.4380   17.9790 C.3       1 EOP         0.0510
     11 NAM        39.5550   29.7360   18.0740 N.am      1 EOP        -0.2839
     12 CAO        39.3290   30.4010   19.2060 C.2       1 EOP         0.1926
     13 OAA        38.8590   31.5390   19.2290 O.2       1 EOP        -0.3955
     14 CAK        39.8080   29.7370   20.4980 C.3       1 EOP         0.1083
     15 PAQ        41.4480   30.3720   20.9160 P.3       1 EOP         0.0776
     16 OAF        41.1920   31.5600   21.9730 O.co2     1 EOP        -0.5606
     17 OAE        42.0120   31.0590   19.5720 O.co2     1 EOP        -0.5606
     18 OAC        42.3530   29.3250   21.4400 O.co2     1 EOP        -0.5606
     19 H1         45.0945   29.1740   16.9001 H         1 EOP         0.0692
     20 H2         45.0088   30.9487   17.1647 H         1 EOP         0.0692
     21 H3         43.1494   27.9530   17.3126 H         1 EOP         0.1852
     22 H4         41.0951   27.5085   16.2409 H         1 EOP         0.0540
     23 H5         40.8083   29.2747   16.0830 H         1 EOP         0.0540
     24 H6         40.8310   28.2606   18.8877 H         1 EOP         0.0540
     25 H7         39.4955   27.6339   17.8628 H         1 EOP         0.0540
     26 H8         39.2357   30.1526   17.2228 H         1 EOP         0.1852
     27 H9         39.8602   28.6476   20.3549 H         1 EOP         0.0692
     28 H10        39.1054   29.9666   21.3127 H         1 EOP         0.0692
@<TRIPOS>BOND
     1    1    2 ar 
     2    2    3 ar 
     3    2    4 ar 
     4    2    5 1  
     5    5    6 1  
     6    6    7 2  
     7    6    8 am 
     8    8    9 1  
     9    9   10 1  
    10   10   11 1  
    11   11   12 am 
    12   12   13 2  
    13   12   14 1  
    14   14   15 1  
    15   15   16 ar 
    16   15   17 ar 
    17   15   18 ar 
    18    5   19 1  
    19    5   20 1  
    20    8   21 1  
    21    9   22 1  
    22    9   23 1  
    23   10   24 1  
    24   10   25 1  
    25   11   26 1  
    26   14   27 1  
    27   14   28 1  
@<TRIPOS>SUBSTRUCTURE
     1 EOP         1

