### 
### Created by X-TOOL on Fri Nov 18 17:50:00 2016
### 

@<TRIPOS>MOLECULE
4o6w_ligand
  125   127     1     0     0
SMALL
GAST_HUCK


@<TRIPOS>ATOM
      1 C           4.9080   17.4060   14.1240 C.2       1 ACE         0.1776
      2 O           5.1970   17.9060   13.0510 O.2       1 ACE        -0.3970
      3 CH3         3.5220   17.5910   14.7010 C.3       1 ACE         0.0260
      4 N           5.8280   16.6800   14.8020 N.am      1 ACE        -0.2520
      5 CA          7.2140   16.4190   14.3560 C.3       1 ACE         0.1337
      6 C           7.2650   15.6240   13.0640 C.2       1 ACE         0.2041
      7 O           6.4350   14.7430   12.8560 O.2       1 ACE        -0.3944
      8 CB          7.8810   15.5330   15.4390 C.3       1 ACE        -0.0104
      9 CG          6.9550   15.5880   16.6790 C.3       1 ACE        -0.0281
     10 CD          5.6020   16.0260   16.1030 C.3       1 ACE         0.0369
     11 N           8.2390   15.9230   12.1690 N.am      1 ACE        -0.2637
     12 CA          8.3740   15.2120   10.8820 C.3       1 ACE         0.1312
     13 C           9.4000   14.0910   10.9600 C.2       1 ACE         0.2042
     14 O           9.7090   13.4380    9.9590 O.2       1 ACE        -0.3944
     15 CB          8.7030   16.1930    9.7500 C.3       1 ACE        -0.0101
     16 CG          7.5300   17.1260    9.4860 C.3       1 ACE        -0.0425
     17 CD1         7.9450   17.9990    8.2880 C.3       1 ACE        -0.0625
     18 CD2         6.2910   16.3500    9.0600 C.3       1 ACE        -0.0625
     19 C          10.9320   12.4200   13.7700 C.2       1 ACE         0.2099
     20 CA         10.9570   12.7500   12.3100 C.3       1 ACE         0.1612
     21 CB         12.3840   13.0230   11.8350 C.3       1 ACE         0.1056
     22 C12        12.9060   14.3300   12.3650 C.2       1 ACE         0.1984
     23 C13        13.4260   14.5700   13.5880 C.2       1 ACE         0.1107
     24 N14        13.7570   15.8880   13.6170 N.2       1 ACE        -0.2857
     25 C15        13.4540   16.4320   12.4710 C.2       1 ACE         0.1741
     26 N16        12.9210   15.5100   11.6530 N.pl3     1 ACE        -0.1460
     27 C17        12.4470   15.7040   10.2820 C.3       1 ACE         0.0828
     28 C18        13.6180   15.3550    9.3790 C.3       1 ACE        -0.0226
     29 C19        13.2040   15.4300    7.9250 C.3       1 ACE        -0.0504
     30 C20        14.4320   15.0370    7.0990 C.3       1 ACE        -0.0530
     31 C21        13.9440   14.7230    5.7000 C.3       1 ACE        -0.0529
     32 C22        15.1570   14.4020    4.8110 C.3       1 ACE        -0.0513
     33 C23        15.5450   12.9270    5.0260 C.3       1 ACE        -0.0433
     34 C24        16.6150   12.5100    3.9880 C.3       1 ACE        -0.0192
     35 C25        16.0760   12.5070    2.5670 C.ar      1 ACE        -0.0430
     36 C26        15.1490   11.5550    2.1950 C.ar      1 ACE        -0.0603
     37 C27        14.6380   11.5260    0.9150 C.ar      1 ACE        -0.0686
     38 C28        15.0580   12.4590   -0.0070 C.ar      1 ACE        -0.0687
     39 C29        15.9840   13.4170    0.3510 C.ar      1 ACE        -0.0686
     40 C30        16.4960   13.4480    1.6340 C.ar      1 ACE        -0.0603
     41 N           9.9600   13.8310   12.1540 N.am      1 ACE        -0.2587
     42 O          10.4470   13.1850   14.6040 O.2       1 ACE        -0.3939
     43 CCA        14.3640   16.5950   14.7700 C.3       1 ACE         0.0054
     44 N          11.4810   11.2290   14.0760 N.am      1 ACE        -0.2612
     45 CA         11.5500   10.7310   15.4440 C.3       1 ACE         0.1539
     46 C          12.5800   11.4840   16.2380 C.2       1 ACE         0.2063
     47 O          13.3290   12.3260   15.7260 O.2       1 ACE        -0.3943
     48 CB         11.6950    9.2080   15.3930 C.3       1 ACE         0.0843
     49 OG         12.9140    8.8660   14.7370 O.3       1 ACE        -0.3903
     50 N          12.6580   11.2090   17.5420 N.am      1 ACE        -0.2610
     51 CA         13.6040   11.8820   18.4400 C.3       1 ACE         0.1608
     52 CB         13.3250   11.3920   19.8620 C.3       1 ACE         0.1262
     53 CG2        14.0430   12.1910   20.9440 C.3       1 ACE        -0.0298
     54 OG1        11.9400   11.5270   20.1640 O.3       1 ACE        -0.2685
     55 P          11.0460   10.1980   20.3610 P.3       1 ACE         0.2014
     56 O1P        11.0240    9.5170   19.0570 O.co2     1 ACE        -0.5537
     57 O2P         9.6370   10.8140   20.7770 O.co2     1 ACE        -0.5537
     58 O3P        11.6700    9.3500   21.5040 O.co2     1 ACE        -0.5537
     59 C          15.0650   11.7840   18.1420 C.2       1 ACE         0.2021
     60 O          15.5550   10.7230   17.8590 O.2       1 ACE        -0.3946
     61 N          15.7680   12.9540   18.2170 N.am      1 ACE        -0.2989
     62 H           3.4545   17.0696   15.6672 H         1 ACE         0.0467
     63 H           2.7772   17.1745   14.0069 H         1 ACE         0.0467
     64 H           3.3264   18.6633   14.8486 H         1 ACE         0.0467
     65 H           7.7533   17.3700   14.2347 H         1 ACE         0.0802
     66 H           8.8775   15.9249   15.6906 H         1 ACE         0.0313
     67 H           7.9742   14.4977   15.0793 H         1 ACE         0.0313
     68 H           7.3245   16.3198   17.4124 H         1 ACE         0.0287
     69 H           6.8772   14.5993   17.1547 H         1 ACE         0.0287
     70 H           4.9560   15.1461   15.9670 H         1 ACE         0.0524
     71 H           5.1182   16.7330   16.7929 H         1 ACE         0.0524
     72 H           8.8888   16.6508   12.3884 H         1 ACE         0.1883
     73 H           7.4010   14.7530   10.6529 H         1 ACE         0.0800
     74 H           8.9257   15.6256    8.8343 H         1 ACE         0.0315
     75 H           9.5819   16.7902   10.0343 H         1 ACE         0.0315
     76 H           7.3135   17.7370   10.3747 H         1 ACE         0.0298
     77 H           7.1325   18.7000    8.0463 H         1 ACE         0.0232
     78 H           8.1457   17.3564    7.4181 H         1 ACE         0.0232
     79 H           8.8533   18.5645    8.5435 H         1 ACE         0.0232
     80 H           5.9568   15.7090    9.8891 H         1 ACE         0.0232
     81 H           6.5318   15.7250    8.1874 H         1 ACE         0.0232
     82 H           5.4894   17.0554    8.7958 H         1 ACE         0.0232
     83 H          10.5990   11.8808   11.7388 H         1 ACE         0.0867
     84 H          12.3939   13.0548   10.7355 H         1 ACE         0.0803
     85 H          13.0377   12.2102   12.1842 H         1 ACE         0.0803
     86 H          13.5549   13.8486   14.3935 H         1 ACE         0.1313
     87 H          13.6101   17.4790   12.2153 H         1 ACE         0.1877
     88 H          12.1438   16.7500   10.1271 H         1 ACE         0.0644
     89 H          11.5943   15.0406   10.0752 H         1 ACE         0.0644
     90 H          13.9594   14.3343    9.6064 H         1 ACE         0.0293
     91 H          14.4387   16.0649    9.5591 H         1 ACE         0.0293
     92 H          12.8886   16.4531    7.6726 H         1 ACE         0.0266
     93 H          12.3763   14.7324    7.7297 H         1 ACE         0.0266
     94 H          14.9148   14.1515    7.5381 H         1 ACE         0.0265
     95 H          15.1501   15.8698    7.0703 H         1 ACE         0.0265
     96 H          13.4069   15.5920    5.2923 H         1 ACE         0.0265
     97 H          13.2684   13.8555    5.7304 H         1 ACE         0.0265
     98 H          16.0010   15.0514    5.0865 H         1 ACE         0.0267
     99 H          14.8969   14.5669    3.7550 H         1 ACE         0.0267
    100 H          14.6537   12.2936    4.9062 H         1 ACE         0.0287
    101 H          15.9513   12.8003    6.0403 H         1 ACE         0.0287
    102 H          16.9691   11.4978    4.2332 H         1 ACE         0.0426
    103 H          17.4561   13.2166    4.0449 H         1 ACE         0.0426
    104 H          14.8180   10.8197    2.9194 H         1 ACE         0.0557
    105 H          13.9098   10.7732    0.6357 H         1 ACE         0.0599
    106 H          14.6604   12.4406   -1.0153 H         1 ACE         0.0559
    107 H          16.3116   14.1492   -0.3781 H         1 ACE         0.0599
    108 H          17.2223   14.2032    1.9119 H         1 ACE         0.0557
    109 H           9.6982   14.3774   12.9496 H         1 ACE         0.1888
    110 H          14.5078   15.8872   15.5997 H         1 ACE         0.0376
    111 H          13.6979   17.4085   15.0933 H         1 ACE         0.0376
    112 H          15.3367   17.0138   14.4726 H         1 ACE         0.0376
    113 H          11.8546   10.6664   13.3385 H         1 ACE         0.1884
    114 H          10.5830   10.9381   15.9257 H         1 ACE         0.0823
    115 H          10.8478    8.7778   14.8389 H         1 ACE         0.0606
    116 H          11.7051    8.8066   16.4171 H         1 ACE         0.0606
    117 H          13.6453    9.2377   15.2162 H         1 ACE         0.2097
    118 H          12.0464   10.5155   17.9229 H         1 ACE         0.1884
    119 H          13.3605   12.9538   18.3964 H         1 ACE         0.0830
    120 H          13.6257   10.3360   19.9292 H         1 ACE         0.0695
    121 H          13.7917   11.7782   21.9322 H         1 ACE         0.0260
    122 H          13.7255   13.2430   20.8946 H         1 ACE         0.0260
    123 H          15.1298   12.1282   20.7860 H         1 ACE         0.0260
    124 H          16.7503   12.9600   18.0296 H         1 ACE         0.1815
    125 H          15.3000   13.8039   18.4593 H         1 ACE         0.1815
@<TRIPOS>BOND
     1    1    2 2  
     2    1    3 1  
     3    4    1 am 
     4    5    4 1  
     5    4   10 1  
     6    6    5 1  
     7    5    8 1  
     8    6    7 2  
     9   11    6 am 
    10    8    9 1  
    11    9   10 1  
    12   12   11 1  
    13   13   12 1  
    14   12   15 1  
    15   13   14 2  
    16   41   13 am 
    17   15   16 1  
    18   16   17 1  
    19   16   18 1  
    20   20   19 1  
    21   19   42 2  
    22   19   44 am 
    23   20   21 1  
    24   20   41 1  
    25   21   22 1  
    26   22   23 2  
    27   22   26 1  
    28   23   24 1  
    29   24   25 2  
    30   24   43 1  
    31   25   26 1  
    32   26   27 1  
    33   27   28 1  
    34   28   29 1  
    35   29   30 1  
    36   30   31 1  
    37   31   32 1  
    38   32   33 1  
    39   33   34 1  
    40   34   35 1  
    41   35   36 ar 
    42   35   40 ar 
    43   36   37 ar 
    44   37   38 ar 
    45   38   39 ar 
    46   39   40 ar 
    47   44   45 1  
    48   45   46 1  
    49   45   48 1  
    50   46   47 2  
    51   46   50 am 
    52   48   49 1  
    53   50   51 1  
    54   51   52 1  
    55   51   59 1  
    56   52   53 1  
    57   52   54 1  
    58   54   55 1  
    59   55   56 ar 
    60   55   57 ar 
    61   55   58 ar 
    62   59   60 2  
    63   59   61 am 
    64    3   62 1  
    65    3   63 1  
    66    3   64 1  
    67    5   65 1  
    68    8   66 1  
    69    8   67 1  
    70    9   68 1  
    71    9   69 1  
    72   10   70 1  
    73   10   71 1  
    74   11   72 1  
    75   12   73 1  
    76   15   74 1  
    77   15   75 1  
    78   16   76 1  
    79   17   77 1  
    80   17   78 1  
    81   17   79 1  
    82   18   80 1  
    83   18   81 1  
    84   18   82 1  
    85   20   83 1  
    86   21   84 1  
    87   21   85 1  
    88   23   86 1  
    89   25   87 1  
    90   27   88 1  
    91   27   89 1  
    92   28   90 1  
    93   28   91 1  
    94   29   92 1  
    95   29   93 1  
    96   30   94 1  
    97   30   95 1  
    98   31   96 1  
    99   31   97 1  
   100   32   98 1  
   101   32   99 1  
   102   33  100 1  
   103   33  101 1  
   104   34  102 1  
   105   34  103 1  
   106   36  104 1  
   107   37  105 1  
   108   38  106 1  
   109   39  107 1  
   110   40  108 1  
   111   41  109 1  
   112   43  110 1  
   113   43  111 1  
   114   43  112 1  
   115   44  113 1  
   116   45  114 1  
   117   48  115 1  
   118   48  116 1  
   119   49  117 1  
   120   50  118 1  
   121   51  119 1  
   122   52  120 1  
   123   53  121 1  
   124   53  122 1  
   125   53  123 1  
   126   61  124 1  
   127   61  125 1  
@<TRIPOS>SUBSTRUCTURE
     1 ACE         1

