### 
### Created by X-TOOL on Fri Nov 18 17:48:41 2016
### 

@<TRIPOS>MOLECULE
4tun_ligand
   26    25     1     0     0
SMALL
GAST_HUCK


@<TRIPOS>ATOM
      1 OAI        -4.3050   14.5320    4.6260 O.co2     1 MVH        -0.6177
      2 PAN        -3.9500   16.0450    4.2510 P.3       1 MVH         0.2553
      3 OAJ        -4.4970   17.1650    5.3780 O.3       1 MVH        -0.2574
      4 CAC        -3.6140   17.6260    6.3840 C.3       1 MVH         0.0727
      5 OAF        -3.9680   16.4930    2.8170 O.co2     1 MVH        -0.6177
      6 OAK        -5.5010   15.9420    4.0220 O.3       1 MVH        -0.2487
      7 CAM        -6.0620   15.2890    2.8990 C.3       1 MVH         0.1083
      8 CAD        -6.5130   13.8940    3.3750 C.3       1 MVH        -0.0314
      9 CAG        -7.2600   16.1590    2.4700 C.3       1 MVH         0.0683
     10 CAL        -7.8280   15.8930    1.0650 C.2       1 MVH         0.1786
     11 OAE        -7.5640   14.8480    0.5090 O.2       1 MVH        -0.3970
     12 NAH        -8.6280   16.8760    0.5550 N.am      1 MVH        -0.2899
     13 CAA        -9.2560   16.7680   -0.7590 C.3       1 MVH         0.0196
     14 H          -4.1369   18.3485    7.0278 H         1 MVH         0.0584
     15 H          -2.7465   18.1134    5.9152 H         1 MVH         0.0584
     16 H          -3.2726   16.7743    6.9907 H         1 MVH         0.0584
     17 H          -5.3356   15.1977    2.0780 H         1 MVH         0.0679
     18 H          -6.9583   13.3452    2.5320 H         1 MVH         0.0260
     19 H          -7.2587   14.0033    4.1762 H         1 MVH         0.0260
     20 H          -5.6439   13.3380    3.7564 H         1 MVH         0.0260
     21 H          -6.9410   17.2110    2.5087 H         1 MVH         0.0532
     22 H          -8.0703   15.9946    3.1955 H         1 MVH         0.0532
     23 H          -8.7892   17.6984    1.1006 H         1 MVH         0.1847
     24 H          -9.8502   17.6723   -0.9568 H         1 MVH         0.0484
     25 H          -9.9128   15.8859   -0.7801 H         1 MVH         0.0484
     26 H          -8.4781   16.6645   -1.5298 H         1 MVH         0.0484
@<TRIPOS>BOND
     1    1    2 ar 
     2    2    3 1  
     3    2    5 ar 
     4    2    6 1  
     5    3    4 1  
     6    6    7 1  
     7    7    8 1  
     8    7    9 1  
     9    9   10 1  
    10   10   11 2  
    11   10   12 am 
    12   12   13 1  
    13    4   14 1  
    14    4   15 1  
    15    4   16 1  
    16    7   17 1  
    17    8   18 1  
    18    8   19 1  
    19    8   20 1  
    20    9   21 1  
    21    9   22 1  
    22   12   23 1  
    23   13   24 1  
    24   13   25 1  
    25   13   26 1  
@<TRIPOS>SUBSTRUCTURE
     1 MVH         1

