### 
### Created by X-TOOL on Fri Nov 18 14:04:22 2016
### 

@<TRIPOS>MOLECULE
2bfq_ligand
   57    60     1     0     0
SMALL
GAST_HUCK


@<TRIPOS>ATOM
      1 N1        -17.0360   22.4650   -3.0910 N.ar      1 APR        -0.2698
      2 C2        -17.3730   23.6940   -2.5390 C.ar      1 APR         0.0533
      3 N3        -17.8700   23.7660   -1.2860 N.ar      1 APR        -0.2714
      4 C4        -18.0480   22.6270   -0.5560 C.ar      1 APR         0.1613
      5 C5        -17.7330   21.3880   -1.0610 C.ar      1 APR         0.1045
      6 C6        -17.1930   21.2810   -2.3940 C.ar      1 APR         0.1298
      7 N6        -16.8650   20.1390   -2.9290 N.pl3     1 APR        -0.3152
      8 N7        -18.0330   20.4760   -0.0870 N.2       1 APR        -0.2958
      9 C8        -18.4960   21.2080    0.9360 C.2       1 APR         0.1123
     10 N9        -18.5320   22.5600    0.7100 N.pl3     1 APR        -0.1919
     11 C1        -18.9090   23.7480    1.4920 C.3       1 APR         0.2010
     12 C2        -19.8950   23.4750    2.6420 C.3       1 APR         0.1385
     13 O2        -21.2320   23.2180    2.2070 O.3       1 APR        -0.3836
     14 C3        -19.6580   24.7330    3.4660 C.3       1 APR         0.1149
     15 O3        -20.5180   25.7920    3.0810 O.3       1 APR        -0.3864
     16 O4        -17.7690   24.2400    2.1470 O.3       1 APR        -0.3364
     17 C4        -18.1760   25.1190    3.2160 C.3       1 APR         0.1189
     18 C5        -17.2120   24.8410    4.3610 C.3       1 APR         0.1128
     19 O5        -17.6350   23.6340    5.0940 O.3       1 APR        -0.2476
     20 PA        -16.5640   22.7600    5.7830 P.3       1 APR         0.2972
     21 O1A       -15.9130   21.8950    4.7200 O.co2     1 APR        -0.6127
     22 O2A       -17.2800   21.9220    6.8630 O.co2     1 APR        -0.6127
     23 O3A       -15.4700   23.6450    6.4100 O.3       1 APR        -0.1319
     24 PB        -15.3710   24.4280    7.7770 P.3       1 APR         0.2972
     25 O1B       -16.7180   24.9310    8.3250 O.co2     1 APR        -0.6127
     26 O2B       -14.3440   25.5040    7.6190 O.co2     1 APR        -0.6127
     27 RO5       -14.7710   23.3110    8.6910 O.3       1 APR        -0.2476
     28 RC5       -13.3660   22.9760    8.5760 C.3       1 APR         0.1128
     29 RO4       -14.0120   20.6410    8.3610 O.3       1 APR        -0.3403
     30 RO1       -13.5440   18.3540    8.2770 O.3       1 APR        -0.3649
     31 RC1       -13.2650   19.6370    7.6740 C.3       1 APR         0.1854
     32 RO2       -10.8080   19.0940    7.6950 O.3       1 APR        -0.3841
     33 RC2       -11.8270   20.0940    7.7990 C.3       1 APR         0.1339
     34 RO3       -11.6770   20.0010   10.2650 O.3       1 APR        -0.3864
     35 RC3       -11.8960   20.8270    9.1270 C.3       1 APR         0.1144
     36 RC4       -13.2210   21.5790    9.1540 C.3       1 APR         0.1184
     37 H1        -17.2362   24.6005   -3.1175 H         1 APR         0.0996
     38 H2        -16.9883   19.2663   -2.3961 H         1 APR         0.1820
     39 H3        -16.4824   20.1090   -3.8848 H         1 APR         0.1820
     40 H4        -18.8192   20.7626    1.8757 H         1 APR         0.1349
     41 H5        -19.3298   24.5022    0.8108 H         1 APR         0.0996
     42 H6        -19.5745   22.5938    3.2171 H         1 APR         0.0676
     43 H7        -21.7847   23.0586    2.9631 H         1 APR         0.2101
     44 H8        -19.8179   24.5157    4.5324 H         1 APR         0.0648
     45 H9        -20.3684   26.0036    2.1671 H         1 APR         0.2100
     46 H10       -18.1090   26.1785    2.9279 H         1 APR         0.0651
     47 H11       -17.2044   25.7003    5.0477 H         1 APR         0.0648
     48 H12       -16.2009   24.6859    3.9565 H         1 APR         0.0648
     49 H13       -12.7545   23.6910    9.1460 H         1 APR         0.0648
     50 H14       -13.0553   22.9873    7.5209 H         1 APR         0.0648
     51 H15       -13.2911   18.3739    9.1925 H         1 APR         0.2126
     52 H16       -13.5485   19.5969    6.6119 H         1 APR         0.0935
     53 H17       -10.9288   18.4479    8.3809 H         1 APR         0.2101
     54 H18       -11.6165   20.8191    6.9991 H         1 APR         0.0671
     55 H19       -12.3361   19.3172   10.2901 H         1 APR         0.2100
     56 H20       -11.0900   21.5755    9.1331 H         1 APR         0.0648
     57 H21       -13.5780   21.6281   10.1933 H         1 APR         0.0651
@<TRIPOS>BOND
     1    2    1 ar 
     2    6    1 ar 
     3    3    2 ar 
     4    4    3 ar 
     5    4    5 ar 
     6   10    4 1  
     7    5    6 ar 
     8    8    5 1  
     9    6    7 1  
    10    9    8 2  
    11   10    9 1  
    12   11   10 1  
    13   11   12 1  
    14   16   11 1  
    15   12   13 1  
    16   14   12 1  
    17   14   15 1  
    18   17   14 1  
    19   17   16 1  
    20   18   17 1  
    21   19   18 1  
    22   20   19 1  
    23   20   21 ar 
    24   20   22 ar 
    25   23   20 1  
    26   24   23 1  
    27   24   25 ar 
    28   24   26 ar 
    29   27   24 1  
    30   28   27 1  
    31   36   28 1  
    32   29   31 1  
    33   29   36 1  
    34   31   30 1  
    35   31   33 1  
    36   33   32 1  
    37   33   35 1  
    38   35   34 1  
    39   35   36 1  
    40    2   37 1  
    41    7   38 1  
    42    7   39 1  
    43    9   40 1  
    44   11   41 1  
    45   12   42 1  
    46   13   43 1  
    47   14   44 1  
    48   15   45 1  
    49   17   46 1  
    50   18   47 1  
    51   18   48 1  
    52   28   49 1  
    53   28   50 1  
    54   30   51 1  
    55   31   52 1  
    56   32   53 1  
    57   33   54 1  
    58   34   55 1  
    59   35   56 1  
    60   36   57 1  
@<TRIPOS>SUBSTRUCTURE
     1 APR         1

