### 
### Created by X-TOOL on Fri Nov 18 17:47:16 2016
### 

@<TRIPOS>MOLECULE
4w97_ligand
  112   116     1     0     0
SMALL
GAST_HUCK


@<TRIPOS>ATOM
      1 C4         -8.0650   38.8040    5.6090 C.ar      1 UCA         0.1613
      2 C5         -9.1500   39.2760    4.8560 C.ar      1 UCA         0.1045
      3 C6         -9.6590   38.4480    3.8290 C.ar      1 UCA         0.1298
      4 C8         -8.5610   40.8030    6.3340 C.2       1 UCA         0.1123
      5 N1         -9.1020   37.2560    3.6380 N.ar      1 UCA        -0.2698
      6 N3         -7.5560   37.5630    5.3580 N.ar      1 UCA        -0.2714
      7 OAG        -7.9680   44.0260   24.0290 O.2       1 UCA        -0.3913
      8 CBT        -6.9130   43.3390   23.8810 C.2       1 UCA         0.1081
      9 CBA        -5.7730   43.6810   24.9140 C.3       1 UCA         0.0208
     10 CBD        -4.4110   43.9640   24.3160 C.3       1 UCA        -0.0265
     11 CCI        -4.1170   43.0260   23.1610 C.3       1 UCA         0.0391
     12 CAC        -3.8420   41.5450   23.5330 C.3       1 UCA        -0.0542
     13 CBU        -2.8890   43.2450   22.2520 C.2       1 UCA         0.1331
     14 OAH        -1.7710   43.7020   22.4930 O.2       1 UCA        -0.3322
     15 CAZ        -3.2330   43.1380   20.7890 C.3       1 UCA         0.0231
     16 CBC        -4.6280   42.5480   20.8060 C.3       1 UCA        -0.0330
     17 CCD        -5.1830   43.1650   22.0920 C.3       1 UCA        -0.0098
     18 CCC        -6.6150   42.6830   22.4840 C.3       1 UCA         0.0370
     19 CBB        -7.5500   43.7030   21.8070 C.3       1 UCA        -0.0174
     20 CAY        -8.1760   42.5530   21.0440 C.3       1 UCA         0.0340
     21 CBS        -9.4520   43.1020   20.4660 C.2       1 UCA         0.1643
     22 OAF        -9.9800   44.1280   20.8210 O.2       1 UCA        -0.3791
     23 SBQ       -10.1730   42.2160   19.1570 S.3       1 UCA        -0.0482
     24 CAW       -11.8890   42.4720   19.5510 C.3       1 UCA         0.0336
     25 CAU       -12.3530   43.2910   18.4250 C.3       1 UCA         0.0422
     26 NBJ       -11.6470   43.0830   17.2190 N.am      1 UCA        -0.2860
     27 CBR       -11.0660   44.0640   16.4950 C.2       1 UCA         0.1779
     28 OAE       -11.2610   45.2100   16.8660 O.2       1 UCA        -0.3970
     29 CAX       -10.3220   43.6690   15.3050 C.3       1 UCA         0.0574
     30 CAV        -9.4920   44.7540   14.8200 C.3       1 UCA         0.0477
     31 NBK        -8.2200   44.6230   15.6460 N.am      1 UCA        -0.2826
     32 CBV        -8.0390   45.4880   16.6240 C.2       1 UCA         0.2057
     33 OAI        -8.6260   46.5060   16.9230 O.2       1 UCA        -0.3942
     34 CBZ        -6.7220   45.0740   17.2300 C.3       1 UCA         0.1510
     35 OAM        -6.7530   45.3570   18.6710 O.3       1 UCA        -0.3708
     36 CCH        -5.3910   45.6560   16.7130 C.3       1 UCA         0.0367
     37 CAA        -4.2270   45.0590   17.4640 C.3       1 UCA        -0.0528
     38 CAB        -5.3970   47.1490   16.9620 C.3       1 UCA        -0.0528
     39 CBF        -5.2710   45.3430   15.2350 C.3       1 UCA         0.0936
     40 OBM        -5.1070   43.9250   14.9840 O.3       1 UCA        -0.2496
     41 PCL        -4.4460   43.4600   13.6040 P.3       1 UCA         0.2971
     42 OAR        -3.0920   44.0670   13.3470 O.co2     1 UCA        -0.6127
     43 OAL        -4.4820   41.9280   13.5930 O.co2     1 UCA        -0.6127
     44 OBP        -5.3740   43.9110   12.3830 O.3       1 UCA        -0.1319
     45 PCK        -6.8040   43.2400   11.9870 P.3       1 UCA         0.2972
     46 OAQ        -7.6300   44.3660   11.3930 O.co2     1 UCA        -0.6127
     47 OAK        -7.4620   42.6230   13.2340 O.co2     1 UCA        -0.6127
     48 O5'        -6.5330   42.0090   10.9140 O.3       1 UCA        -0.2476
     49 C5'        -5.9890   42.3180    9.6460 C.3       1 UCA         0.1131
     50 C4'        -5.6350   40.9750    9.0460 C.3       1 UCA         0.1235
     51 O4'        -6.9060   40.3880    8.6710 O.3       1 UCA        -0.3360
     52 C3'        -4.7210   41.0240    7.8000 C.3       1 UCA         0.1487
     53 O3'        -3.3310   40.2960    7.9170 O.3       1 UCA        -0.2674
     54 PCJ        -1.7320   40.3860    8.3210 P.3       1 UCA         0.2013
     55 OAO        -1.0860   39.2750    7.5150 O.co2     1 UCA        -0.5537
     56 OAP        -1.5500   40.1380    9.8050 O.co2     1 UCA        -0.5537
     57 OAJ        -1.1430   41.7310    7.9430 O.co2     1 UCA        -0.5537
     58 C2'        -5.6830   40.5670    6.7330 C.3       1 UCA         0.1432
     59 O2'        -4.7750   39.8430    5.8160 O.3       1 UCA        -0.3832
     60 C1'        -6.6040   39.6660    7.4880 C.3       1 UCA         0.2013
     61 N9         -7.7160   39.7620    6.5120 N.pl3     1 UCA        -0.1919
     62 N7         -9.4380   40.5470    5.3390 N.2       1 UCA        -0.2958
     63 C2         -8.0740   36.8390    4.3990 C.ar      1 UCA         0.0533
     64 N6        -10.6740   38.8640    3.0590 N.pl3     1 UCA        -0.3152
     65 H          -8.5375   41.7239    6.9148 H         1 UCA         0.1349
     66 H          -5.6705   42.8271   25.5998 H         1 UCA         0.0492
     67 H          -6.0853   44.5708   25.4803 H         1 UCA         0.0492
     68 H          -3.6429   43.8303   25.0920 H         1 UCA         0.0280
     69 H          -4.3871   45.0015   23.9514 H         1 UCA         0.0280
     70 H          -3.6435   40.9679   22.6178 H         1 UCA         0.0219
     71 H          -4.7201   41.1269   24.0469 H         1 UCA         0.0219
     72 H          -2.9674   41.4902   24.1979 H         1 UCA         0.0219
     73 H          -2.5297   42.4736   20.2656 H         1 UCA         0.0487
     74 H          -3.2288   44.1277   20.3090 H         1 UCA         0.0487
     75 H          -4.6027   41.4497   20.8618 H         1 UCA         0.0292
     76 H          -5.2093   42.8571   19.9248 H         1 UCA         0.0292
     77 H          -5.2900   44.2431   21.9014 H         1 UCA         0.0319
     78 H          -6.8116   41.6088   22.3524 H         1 UCA         0.0532
     79 H          -7.0366   44.4431   21.1756 H         1 UCA         0.0318
     80 H          -8.2350   44.2201   22.4949 H         1 UCA         0.0318
     81 H          -8.3908   41.7136   21.7217 H         1 UCA         0.0505
     82 H          -7.5050   42.2137   20.2411 H         1 UCA         0.0505
     83 H         -12.0025   43.0070   20.5054 H         1 UCA         0.0424
     84 H         -12.4329   41.5171   19.5990 H         1 UCA         0.0424
     85 H         -12.2502   44.3498   18.7050 H         1 UCA         0.0529
     86 H         -13.4136   43.0602   18.2464 H         1 UCA         0.0529
     87 H         -11.5724   42.1458   16.8783 H         1 UCA         0.1851
     88 H         -11.0331   43.3815   14.5165 H         1 UCA         0.0522
     89 H          -9.6809   42.8099   15.5517 H         1 UCA         0.0522
     90 H          -9.9752   45.7268   14.9934 H         1 UCA         0.0545
     91 H          -9.2783   44.6367   13.7474 H         1 UCA         0.0545
     92 H          -7.5476   43.9082   15.4540 H         1 UCA         0.1853
     93 H          -6.6577   43.9854   17.0857 H         1 UCA         0.0844
     94 H          -6.8920   46.2869   18.8071 H         1 UCA         0.2133
     95 H          -3.2873   45.4850   17.0826 H         1 UCA         0.0238
     96 H          -4.2194   43.9683   17.3218 H         1 UCA         0.0238
     97 H          -4.3253   45.2884   18.5353 H         1 UCA         0.0238
     98 H          -6.2393   47.6072   16.4230 H         1 UCA         0.0238
     99 H          -4.4524   47.5843   16.6040 H         1 UCA         0.0238
    100 H          -5.5038   47.3406   18.0399 H         1 UCA         0.0238
    101 H          -4.3987   45.8769   14.8301 H         1 UCA         0.0628
    102 H          -6.1821   45.6893   14.7251 H         1 UCA         0.0628
    103 H          -5.0915   42.9454    9.7507 H         1 UCA         0.0648
    104 H          -6.7299   42.8391    9.0219 H         1 UCA         0.0648
    105 H          -5.1403   40.3598    9.8120 H         1 UCA         0.0654
    106 H          -4.4709   42.0761    7.5988 H         1 UCA         0.0704
    107 H          -6.2247   41.3799    6.2273 H         1 UCA         0.0680
    108 H          -4.3605   39.1269    6.2827 H         1 UCA         0.2101
    109 H          -6.2426   38.6454    7.6825 H         1 UCA         0.0996
    110 H          -7.6552   35.8574    4.2089 H         1 UCA         0.0996
    111 H         -11.0383   38.2540    2.3133 H         1 UCA         0.1820
    112 H         -11.0898   39.7937    3.2130 H         1 UCA         0.1820
@<TRIPOS>BOND
     1    1    2 ar 
     2    1    6 ar 
     3   61    1 1  
     4    2    3 ar 
     5   62    2 1  
     6    3    5 ar 
     7    3   64 1  
     8   61    4 1  
     9    4   62 2  
    10   63    5 ar 
    11    6   63 ar 
    12    8    7 2  
    13    8    9 1  
    14   18    8 1  
    15    9   10 1  
    16   11   10 1  
    17   11   12 1  
    18   11   13 1  
    19   17   11 1  
    20   13   14 2  
    21   15   13 1  
    22   16   15 1  
    23   17   16 1  
    24   18   17 1  
    25   19   18 1  
    26   20   19 1  
    27   21   20 1  
    28   21   22 2  
    29   23   21 1  
    30   24   23 1  
    31   25   24 1  
    32   26   25 1  
    33   27   26 am 
    34   27   28 2  
    35   29   27 1  
    36   30   29 1  
    37   31   30 1  
    38   32   31 am 
    39   32   33 2  
    40   34   32 1  
    41   34   35 1  
    42   36   34 1  
    43   36   37 1  
    44   36   38 1  
    45   39   36 1  
    46   40   39 1  
    47   41   40 1  
    48   41   42 ar 
    49   41   43 ar 
    50   44   41 1  
    51   45   44 1  
    52   45   46 ar 
    53   45   47 ar 
    54   48   45 1  
    55   49   48 1  
    56   50   49 1  
    57   51   50 1  
    58   52   50 1  
    59   60   51 1  
    60   52   53 1  
    61   58   52 1  
    62   53   54 1  
    63   54   55 ar 
    64   54   56 ar 
    65   54   57 ar 
    66   58   59 1  
    67   60   58 1  
    68   60   61 1  
    69    4   65 1  
    70    9   66 1  
    71    9   67 1  
    72   10   68 1  
    73   10   69 1  
    74   12   70 1  
    75   12   71 1  
    76   12   72 1  
    77   15   73 1  
    78   15   74 1  
    79   16   75 1  
    80   16   76 1  
    81   17   77 1  
    82   18   78 1  
    83   19   79 1  
    84   19   80 1  
    85   20   81 1  
    86   20   82 1  
    87   24   83 1  
    88   24   84 1  
    89   25   85 1  
    90   25   86 1  
    91   26   87 1  
    92   29   88 1  
    93   29   89 1  
    94   30   90 1  
    95   30   91 1  
    96   31   92 1  
    97   34   93 1  
    98   35   94 1  
    99   37   95 1  
   100   37   96 1  
   101   37   97 1  
   102   38   98 1  
   103   38   99 1  
   104   38  100 1  
   105   39  101 1  
   106   39  102 1  
   107   49  103 1  
   108   49  104 1  
   109   50  105 1  
   110   52  106 1  
   111   58  107 1  
   112   59  108 1  
   113   60  109 1  
   114   63  110 1  
   115   64  111 1  
   116   64  112 1  
@<TRIPOS>SUBSTRUCTURE
     1 UCA         1

