### 
### Created by X-TOOL on Fri Nov 18 13:41:14 2016
### 

@<TRIPOS>MOLECULE
1wc1_ligand
   43    45     1     0     0
SMALL
GAST_HUCK


@<TRIPOS>ATOM
      1 PG         40.5190   47.8320  147.9490 P.3       1 TAT         0.1293
      2 O1G        41.6640   47.8270  146.9750 O.co2     1 TAT        -0.6693
      3 O2G        39.3960   48.7200  147.4920 O.co2     1 TAT        -0.6693
      4 O3G        41.0350   48.2910  149.2890 O.co2     1 TAT        -0.6693
      5 PB         39.1140   45.4850  147.1780 P.3       1 TAT         0.3370
      6 O1B        38.4190   46.3790  146.1660 O.co2     1 TAT        -0.6074
      7 O2B        39.9460   44.4050  146.4510 O.co2     1 TAT        -0.6074
      8 O3B        40.0710   46.3350  148.1050 O.3       1 TAT        -0.1687
      9 PA         36.7350   44.1400  147.8650 P.3       1 TAT         0.5298
     10 S1A        35.3260   45.0220  148.9590 S.2       1 TAT         0.3301
     11 O2A        36.4220   44.2340  146.3540 O.2       1 TAT        -0.4025
     12 O3A        38.1040   44.8250  148.2230 O.3       1 TAT        -0.0791
     13 O13        36.9100   42.6540  148.2900 O.3       1 TAT        -0.2067
     14 C14        38.0320   41.8880  147.7770 C.3       1 TAT         0.1207
     15 C15        37.5420   40.7210  146.9720 C.3       1 TAT         0.1199
     16 O16        36.6960   39.8850  147.8570 O.3       1 TAT        -0.3363
     17 C17        36.6170   41.1570  145.8390 C.3       1 TAT         0.1150
     18 O18        37.3390   41.4990  144.6490 O.3       1 TAT        -0.3864
     19 C19        35.7580   39.9830  145.6720 C.3       1 TAT         0.1385
     20 O20        36.4480   39.0200  144.8700 O.3       1 TAT        -0.3836
     21 C21        35.5110   39.4850  147.0970 C.3       1 TAT         0.2010
     22 N9         34.2760   40.1110  147.7010 N.pl3     1 TAT        -0.1919
     23 C8         34.1800   40.9640  148.7480 C.2       1 TAT         0.1123
     24 N7         32.9070   41.3290  149.0440 N.2       1 TAT        -0.2958
     25 C5         32.1850   40.6780  148.1440 C.ar      1 TAT         0.1045
     26 C6         30.7970   40.6240  147.9190 C.ar      1 TAT         0.1298
     27 N6         29.9170   41.2860  148.6600 N.pl3     1 TAT        -0.3152
     28 N1         30.3290   39.8270  146.8520 N.ar      1 TAT        -0.2698
     29 C2         31.2690   39.1200  146.0780 C.ar      1 TAT         0.0533
     30 N3         32.5910   39.0990  146.2240 N.ar      1 TAT        -0.2714
     31 C4         32.9980   39.8980  147.2740 C.ar      1 TAT         0.1613
     32 H1         38.6353   41.5195  148.6198 H         1 TAT         0.0660
     33 H2         38.6511   42.5350  147.1381 H         1 TAT         0.0660
     34 H3         38.3957   40.1513  146.5763 H         1 TAT         0.0652
     35 H4         36.0186   42.0282  146.1438 H         1 TAT         0.0648
     36 H5         37.8336   40.7442  144.3520 H         1 TAT         0.2100
     37 H6         34.8069   40.2517  145.1891 H         1 TAT         0.0676
     38 H7         35.8989   38.2533  144.7553 H         1 TAT         0.2101
     39 H8         35.4016   38.3905  147.1020 H         1 TAT         0.0996
     40 H9         35.0455   41.3243  149.3021 H         1 TAT         0.1349
     41 H10        28.9107   41.2124  148.4531 H         1 TAT         0.1820
     42 H11        30.2404   41.8733  149.4419 H         1 TAT         0.1820
     43 H12        30.8680   38.5222  145.2675 H         1 TAT         0.0996
@<TRIPOS>BOND
     1    1    2 ar 
     2    1    3 ar 
     3    1    4 ar 
     4    8    1 1  
     5    5    6 ar 
     6    5    7 ar 
     7    5    8 1  
     8   12    5 1  
     9    9   10 2  
    10    9   11 2  
    11    9   12 1  
    12    9   13 1  
    13   13   14 1  
    14   14   15 1  
    15   15   16 1  
    16   15   17 1  
    17   16   21 1  
    18   17   18 1  
    19   17   19 1  
    20   19   20 1  
    21   19   21 1  
    22   21   22 1  
    23   22   23 1  
    24   22   31 1  
    25   23   24 2  
    26   24   25 1  
    27   25   26 ar 
    28   25   31 ar 
    29   26   27 1  
    30   26   28 ar 
    31   28   29 ar 
    32   29   30 ar 
    33   30   31 ar 
    34   14   32 1  
    35   14   33 1  
    36   15   34 1  
    37   17   35 1  
    38   18   36 1  
    39   19   37 1  
    40   20   38 1  
    41   21   39 1  
    42   23   40 1  
    43   27   41 1  
    44   27   42 1  
    45   29   43 1  
@<TRIPOS>SUBSTRUCTURE
     1 TAT         1

