### 
### Created by X-TOOL on Fri Nov 18 18:01:05 2016
### 

@<TRIPOS>MOLECULE
5cap_ligand
   55    57     1     0     0
SMALL
GAST_HUCK


@<TRIPOS>ATOM
      1 C4        -54.2690    1.3930  -21.0150 C.ar      1 MOL         0.0381
      2 C5        -55.2370    2.3870  -21.2280 C.ar      1 MOL        -0.0031
      3 C11       -52.2580   -1.2760  -22.4910 C.3       1 MOL         0.0637
      4 C7        -55.4830    1.7980  -23.4800 C.ar      1 MOL         0.1201
      5 C8        -54.4940    0.8090  -23.3500 C.ar      1 MOL         0.0063
      6 C9        -53.8870    0.5840  -22.1080 C.ar      1 MOL         0.0901
      7 C12       -52.6970   -2.7290  -22.3600 C.3       1 MOL        -0.0355
      8 C13       -50.8160   -0.9720  -22.9060 C.3       1 MOL        -0.0355
      9 N3        -53.5400    0.9720  -19.9470 N.2       1 MOL        -0.3161
     10 C1        -51.8030   -0.6690  -19.3070 C.3       1 MOL         0.0185
     11 C2        -52.7500   -0.0060  -20.2890 C.2       1 MOL         0.1213
     12 N6        -55.7980    2.5480  -22.4190 N.ar      1 MOL        -0.2977
     13 N10       -52.9320   -0.2920  -21.6260 N.pl3     1 MOL        -0.2259
     14 N14       -56.1430    2.0630  -24.7050 N.pl3     1 MOL        -0.2479
     15 C15       -56.1600    1.2080  -25.7970 C.ar      1 MOL         0.1377
     16 C16       -57.2130    1.1600  -26.7440 C.ar      1 MOL         0.0002
     17 C17       -57.1070    0.2090  -27.7750 C.ar      1 MOL         0.0038
     18 N18       -56.0250   -0.6060  -27.8560 N.ar      1 MOL        -0.2606
     19 C19       -55.0790   -0.5330  -26.9170 C.ar      1 MOL         0.2317
     20 N20       -55.1370    0.3750  -25.9490 N.ar      1 MOL        -0.2256
     21 O21       -53.9140   -1.2090  -26.9400 O.3       1 MOL        -0.2781
     22 C22       -53.7850   -2.5970  -27.1580 C.3       1 MOL         0.1031
     23 C23       -52.3440   -2.8720  -27.5790 C.3       1 MOL         0.1104
     24 C24       -51.3790   -2.7980  -26.3890 C.3       1 MOL        -0.0376
     25 C25       -52.4070   -4.3340  -28.0240 C.3       1 MOL        -0.0376
     26 S26       -51.7840   -1.7550  -28.9280 S.o2      1 MOL        -0.0261
     27 O27       -52.8290   -1.5520  -29.8710 O.2       1 MOL        -0.1740
     28 O28       -50.5550   -2.2500  -29.4160 O.2       1 MOL        -0.1740
     29 C29       -51.4920   -0.1300  -28.2220 C.3       1 MOL         0.0551
     30 H1        -55.5301    3.0320  -20.4076 H         1 MOL         0.0724
     31 H2        -52.7566   -1.0380  -23.4422 H         1 MOL         0.0634
     32 H3        -54.2005    0.2197  -24.2112 H         1 MOL         0.0533
     33 H4        -52.1174   -3.3514  -23.0576 H         1 MOL         0.0258
     34 H5        -53.7678   -2.8114  -22.5980 H         1 MOL         0.0258
     35 H6        -52.5227   -3.0733  -21.3299 H         1 MOL         0.0258
     36 H7        -50.6695    0.1172  -22.9518 H         1 MOL         0.0258
     37 H8        -50.6190   -1.4103  -23.8955 H         1 MOL         0.0258
     38 H9        -50.1234   -1.4044  -22.1689 H         1 MOL         0.0258
     39 H10       -51.9105   -0.1978  -18.3189 H         1 MOL         0.0497
     40 H11       -50.7676   -0.5504  -19.6590 H         1 MOL         0.0497
     41 H12       -52.0441   -1.7395  -19.2309 H         1 MOL         0.0497
     42 H13       -56.6476    2.9568  -24.7912 H         1 MOL         0.2174
     43 H14       -58.0642    1.8279  -26.6768 H         1 MOL         0.0597
     44 H15       -57.8975    0.1263  -28.5121 H         1 MOL         0.0853
     45 H16       -54.4745   -2.9164  -27.9534 H         1 MOL         0.0649
     46 H17       -54.0149   -3.1441  -26.2318 H         1 MOL         0.0649
     47 H18       -51.7277   -3.4710  -25.5918 H         1 MOL         0.0252
     48 H19       -51.3441   -1.7664  -26.0088 H         1 MOL         0.0252
     49 H20       -50.3732   -3.1036  -26.7130 H         1 MOL         0.0252
     50 H21       -52.7460   -4.9585  -27.1843 H         1 MOL         0.0252
     51 H22       -51.4078   -4.6628  -28.3455 H         1 MOL         0.0252
     52 H23       -53.1126   -4.4321  -28.8621 H         1 MOL         0.0252
     53 H24       -51.1552    0.5577  -29.0117 H         1 MOL         0.0464
     54 H25       -50.7179   -0.2020  -27.4439 H         1 MOL         0.0464
     55 H26       -52.4240    0.2498  -27.7780 H         1 MOL         0.0464
@<TRIPOS>BOND
     1    1    2 ar 
     2    6    1 ar 
     3    1    9 1  
     4    2   12 ar 
     5    3    7 1  
     6    3    8 1  
     7   13    3 1  
     8    5    4 ar 
     9    4   12 ar 
    10    4   14 1  
    11    6    5 ar 
    12    6   13 1  
    13    9   11 2  
    14   11   10 1  
    15   11   13 1  
    16   14   15 1  
    17   15   16 ar 
    18   15   20 ar 
    19   16   17 ar 
    20   17   18 ar 
    21   18   19 ar 
    22   19   20 ar 
    23   19   21 1  
    24   21   22 1  
    25   22   23 1  
    26   23   24 1  
    27   23   25 1  
    28   23   26 1  
    29   26   27 2  
    30   26   28 2  
    31   26   29 1  
    32    2   30 1  
    33    3   31 1  
    34    5   32 1  
    35    7   33 1  
    36    7   34 1  
    37    7   35 1  
    38    8   36 1  
    39    8   37 1  
    40    8   38 1  
    41   10   39 1  
    42   10   40 1  
    43   10   41 1  
    44   14   42 1  
    45   16   43 1  
    46   17   44 1  
    47   22   45 1  
    48   22   46 1  
    49   24   47 1  
    50   24   48 1  
    51   24   49 1  
    52   25   50 1  
    53   25   51 1  
    54   25   52 1  
    55   29   53 1  
    56   29   54 1  
    57   29   55 1  
@<TRIPOS>SUBSTRUCTURE
     1 MOL         1

