### 
### Created by X-TOOL on Fri Nov 18 12:12:02 2016
### 

@<TRIPOS>MOLECULE
2wed_ligand
   71    74     1     0     0
SMALL
GAST_HUCK


@<TRIPOS>ATOM
      1 OI         18.5650    8.1550   19.6630 O.2       1 MOL        -0.3937
      2 C1         21.0440    5.4740   19.1630 C.ar      1 MOL        -0.0174
      3 C2         20.9400    4.1000   19.1490 C.ar      1 MOL        -0.0608
      4 C3         22.0210    3.2630   19.5050 C.ar      1 MOL        -0.0724
      5 C4         23.2730    3.7700   19.7700 C.ar      1 MOL        -0.0654
      6 C5         23.4410    5.2060   19.7780 C.ar      1 MOL        -0.0282
      7 C6         22.3390    6.0530   19.4530 C.ar      1 MOL        -0.0178
      8 C7         22.5080    7.4600   19.5460 C.ar      1 MOL        -0.0552
      9 C8         23.7190    8.0170   19.8970 C.ar      1 MOL        -0.0396
     10 C9         24.8110    7.1710   20.2000 C.ar      1 MOL        -0.0582
     11 C10        24.6540    5.8130   20.1690 C.ar      1 MOL        -0.0595
     12 C11        19.7960    6.3150   18.8990 C.3       1 MOL         0.0715
     13 C12        19.4470    7.3080   19.9930 C.2       1 MOL         0.1903
     14 C13        23.8750    9.5100   19.9760 C.3       1 MOL         0.0220
     15 C14        23.3400    9.9860   21.3350 C.3       1 MOL         0.1404
     16 NV         20.0150    7.3340   21.1980 N.am      1 MOL        -0.2637
     17 CAV        19.8700    8.3390   22.2500 C.3       1 MOL         0.1332
     18 CV         21.3750    8.6870   22.2230 C.2       1 MOL         0.2035
     19 OV         22.1800    8.0780   22.9480 O.2       1 MOL        -0.3945
     20 CBV        19.3300    7.8770   23.6220 C.3       1 MOL        -0.0062
     21 CV1        19.1780    9.3220   24.0990 C.3       1 MOL        -0.0584
     22 CV2        17.9430    7.5370   23.0640 C.3       1 MOL        -0.0584
     23 NL         21.9270    9.6650   21.4940 N.am      1 MOL        -0.2624
     24 P          23.5160   11.7720   21.4550 P.3       1 MOL         0.1520
     25 O          24.9290   12.1260   21.2950 O.co2     1 MOL        -0.6186
     26 OH         22.6130   12.4420   20.5230 O.co2     1 MOL        -0.6186
     27 CA         24.0460   12.9730   23.7760 C.3       1 MOL         0.2012
     28 CB         23.2470   13.7890   24.8260 C.3       1 MOL         0.0314
     29 CG         21.9770   13.1330   25.3100 C.ar      1 MOL        -0.0378
     30 CD1        20.9870   12.7520   24.4270 C.ar      1 MOL        -0.0601
     31 CD2        21.7410   12.9820   26.6640 C.ar      1 MOL        -0.0601
     32 CE1        19.8700   12.1100   24.8680 C.ar      1 MOL        -0.0686
     33 CE2        20.5790   12.3820   27.1150 C.ar      1 MOL        -0.0686
     34 CZ         19.6380   11.9610   26.2110 C.ar      1 MOL        -0.0687
     35 C          24.8720   11.8900   24.4610 C.2       1 MOL         0.2708
     36 CS         27.0350   11.7710   25.4690 C.3       1 MOL         0.0659
     37 OP         23.2510   12.1700   22.9600 O.3       1 MOL        -0.2508
     38 OS         25.7430   12.4970   25.2600 O.3       1 MOL        -0.2778
     39 OE         24.6230   10.7240   24.5650 O.2       1 MOL        -0.3668
     40 H1         19.9997    3.6474   18.8558 H         1 MOL         0.0528
     41 H2         21.8602    2.1930   19.5712 H         1 MOL         0.0577
     42 H3         24.1103    3.1105   19.9673 H         1 MOL         0.0542
     43 H4         21.6663    8.1101   19.3364 H         1 MOL         0.0536
     44 H5         25.7731    7.5993   20.4570 H         1 MOL         0.0584
     45 H6         25.4881    5.1821   20.4539 H         1 MOL         0.0606
     46 H7         18.9437    5.6308   18.7749 H         1 MOL         0.0667
     47 H8         19.9542    6.8766   17.9665 H         1 MOL         0.0667
     48 H9         23.3038    9.9860   19.1653 H         1 MOL         0.0463
     49 H10        24.9378    9.7773   19.8817 H         1 MOL         0.0463
     50 H11        23.9161    9.5011   22.1369 H         1 MOL         0.0810
     51 H12        20.6192    6.5661   21.4106 H         1 MOL         0.1884
     52 H13        19.2441    9.1809   21.9192 H         1 MOL         0.0802
     53 H14        19.8601    7.1437   24.2475 H         1 MOL         0.0343
     54 H15        18.7820    9.3296   25.1252 H         1 MOL         0.0234
     55 H16        18.4836    9.8565   23.4341 H         1 MOL         0.0234
     56 H17        20.1590    9.8192   24.0809 H         1 MOL         0.0234
     57 H18        17.9423    6.5031   22.6884 H         1 MOL         0.0234
     58 H19        17.6996    8.2259   22.2418 H         1 MOL         0.0234
     59 H20        17.1921    7.6379   23.8615 H         1 MOL         0.0234
     60 H21        21.2881   10.2502   20.9946 H         1 MOL         0.1873
     61 H22        24.6694   13.6572   23.1816 H         1 MOL         0.0945
     62 H23        22.9812   14.7569   24.3761 H         1 MOL         0.0482
     63 H24        23.8983   13.9558   25.6966 H         1 MOL         0.0482
     64 H25        21.0999   12.9663   23.3704 H         1 MOL         0.0557
     65 H26        22.4739   13.3374   27.3793 H         1 MOL         0.0557
     66 H27        19.1591   11.7139   24.1520 H         1 MOL         0.0599
     67 H28        20.4133   12.2454   28.1775 H         1 MOL         0.0599
     68 H29        18.7140   11.5120   26.5569 H         1 MOL         0.0559
     69 H30        27.6795   12.3559   26.1417 H         1 MOL         0.0577
     70 H31        27.5409   11.6368   24.5015 H         1 MOL         0.0577
     71 H32        26.8342   10.7869   25.9175 H         1 MOL         0.0577
@<TRIPOS>BOND
     1   13    1 2  
     2    2    3 ar 
     3    7    2 ar 
     4    2   12 1  
     5    3    4 ar 
     6    5    4 ar 
     7    6    5 ar 
     8    7    6 ar 
     9   11    6 ar 
    10    8    7 ar 
    11    9    8 ar 
    12    9   10 ar 
    13   10   11 ar 
    14   13   12 1  
    15   16   13 am 
    16   14    9 1  
    17   15   14 1  
    18   15   23 1  
    19   24   15 1  
    20   17   16 1  
    21   18   17 1  
    22   17   20 1  
    23   18   19 2  
    24   23   18 am 
    25   20   21 1  
    26   20   22 1  
    27   24   25 ar 
    28   24   26 ar 
    29   37   24 1  
    30   27   28 1  
    31   27   35 1  
    32   37   27 1  
    33   28   29 1  
    34   29   30 ar 
    35   29   31 ar 
    36   30   32 ar 
    37   31   33 ar 
    38   32   34 ar 
    39   33   34 ar 
    40   35   38 1  
    41   35   39 2  
    42   38   36 1  
    43    3   40 1  
    44    4   41 1  
    45    5   42 1  
    46    8   43 1  
    47   10   44 1  
    48   11   45 1  
    49   12   46 1  
    50   12   47 1  
    51   14   48 1  
    52   14   49 1  
    53   15   50 1  
    54   16   51 1  
    55   17   52 1  
    56   20   53 1  
    57   21   54 1  
    58   21   55 1  
    59   21   56 1  
    60   22   57 1  
    61   22   58 1  
    62   22   59 1  
    63   23   60 1  
    64   27   61 1  
    65   28   62 1  
    66   28   63 1  
    67   30   64 1  
    68   31   65 1  
    69   32   66 1  
    70   33   67 1  
    71   34   68 1  
    72   36   69 1  
    73   36   70 1  
    74   36   71 1  
@<TRIPOS>SUBSTRUCTURE
     1 MOL         1

