### 
### Created by X-TOOL on Fri Nov 18 16:59:49 2016
### 

@<TRIPOS>MOLECULE
4g0p_ligand
   34    35     1     0     0
SMALL
GAST_HUCK


@<TRIPOS>ATOM
      1 N1         28.6990   29.2940   37.7390 N.am      1 U5P        -0.2233
      2 C2         28.3450   27.8800   37.5700 C.2       1 U5P         0.2924
      3 N3         28.1870   27.3230   36.2050 N.am      1 U5P        -0.1851
      4 C4         28.5410   28.1140   35.0440 C.2       1 U5P         0.2063
      5 C5         28.8120   29.5920   35.1920 C.3       1 U5P         0.0625
      6 C6         28.8820   30.1800   36.5800 C.3       1 U5P         0.0545
      7 O2         28.1100   27.1920   38.5520 O.2       1 U5P        -0.3913
      8 O4         28.5460   27.5870   33.9430 O.2       1 U5P        -0.3868
      9 C1'        28.7280   29.9910   38.9830 C.3       1 U5P         0.1751
     10 C2'        29.9400   30.7840   39.2230 C.3       1 U5P         0.1308
     11 O2'        31.0760   30.0830   39.6360 O.3       1 U5P        -0.3844
     12 C3'        29.4770   31.8720   40.1160 C.3       1 U5P         0.1141
     13 C4'        28.0180   32.0320   39.8140 C.3       1 U5P         0.1174
     14 O3'        30.1320   32.2800   41.3560 O.3       1 U5P        -0.3864
     15 O4'        27.5820   30.8440   39.1720 O.3       1 U5P        -0.3432
     16 C5'        27.3900   33.3410   39.4520 C.3       1 U5P         0.1071
     17 O5'        26.0640   33.2460   39.0960 O.3       1 U5P        -0.2734
     18 P          25.3660   34.3980   38.3100 P.3       1 U5P         0.2008
     19 O1P        25.9180   35.7390   38.7160 O.co2     1 U5P        -0.5537
     20 O2P        25.6470   34.1770   36.8000 O.co2     1 U5P        -0.5537
     21 O3P        23.8370   34.3230   38.6030 O.co2     1 U5P        -0.5537
     22 H1         27.8337   26.3952   36.0850 H         1 U5P         0.2254
     23 H2         28.0123   30.1233   34.6552 H         1 U5P         0.0527
     24 H3         29.7775   29.7946   34.7054 H         1 U5P         0.0527
     25 H4         29.8733   30.6455   36.6833 H         1 U5P         0.0546
     26 H5         28.1044   30.9557   36.6411 H         1 U5P         0.0546
     27 H6         28.6928   29.2179   39.7647 H         1 U5P         0.0895
     28 H7         30.2246   31.2444   38.2654 H         1 U5P         0.0668
     29 H8         31.7946   30.6918   39.7603 H         1 U5P         0.2101
     30 H9         29.8536   32.7260   39.5339 H         1 U5P         0.0648
     31 H10        27.5844   31.9134   40.8179 H         1 U5P         0.0650
     32 H11        29.7416   31.8154   42.0867 H         1 U5P         0.2100
     33 H12        27.9458   33.7688   38.6046 H         1 U5P         0.0639
     34 H13        27.4681   34.0136   40.3188 H         1 U5P         0.0639
@<TRIPOS>BOND
     1    1    2 am 
     2    1    6 1  
     3    1    9 1  
     4    2    3 am 
     5    2    7 2  
     6    3    4 am 
     7    4    5 1  
     8    4    8 2  
     9    5    6 1  
    10    9   10 1  
    11    9   15 1  
    12   10   11 1  
    13   10   12 1  
    14   12   13 1  
    15   12   14 1  
    16   13   15 1  
    17   13   16 1  
    18   16   17 1  
    19   17   18 1  
    20   18   19 ar 
    21   18   20 ar 
    22   18   21 ar 
    23    3   22 1  
    24    5   23 1  
    25    5   24 1  
    26    6   25 1  
    27    6   26 1  
    28    9   27 1  
    29   10   28 1  
    30   11   29 1  
    31   12   30 1  
    32   13   31 1  
    33   14   32 1  
    34   16   33 1  
    35   16   34 1  
@<TRIPOS>SUBSTRUCTURE
     1 U5P         1

