### 
### Created by X-TOOL on Fri Nov 18 11:51:48 2016
### 

@<TRIPOS>MOLECULE
1ppm_ligand
   81    82     1     0     0
SMALL
GAST_HUCK


@<TRIPOS>ATOM
      1 C          16.9610    5.0560   18.8390 C.2       1 MOL         0.3239
      2 O          16.7860    4.7930   20.0630 O.2       1 MOL        -0.3773
      3 OA         15.8380    4.9040   17.9920 O.3       1 MOL        -0.2506
      4 CB         14.5710    4.8710   18.7050 C.3       1 MOL         0.1113
      5 CG         13.9910    3.4940   18.5040 C.ar      1 MOL        -0.0130
      6 CD1        13.3750    2.8280   19.5820 C.ar      1 MOL        -0.0578
      7 CD2        14.0800    2.9530   17.2440 C.ar      1 MOL        -0.0578
      8 CE1        12.8490    1.5710   19.3880 C.ar      1 MOL        -0.0685
      9 CE2        13.5460    1.6690   17.0360 C.ar      1 MOL        -0.0685
     10 CZ         12.9150    1.0010   18.1120 C.ar      1 MOL        -0.0687
     11 N          18.0710    5.5250   18.3860 N.am      1 MOL        -0.2413
     12 CA         19.2050    5.7540   19.2480 C.3       1 MOL         0.1300
     13 C          19.0300    7.1030   20.0120 C.2       1 MOL         0.2036
     14 O          18.1610    7.9500   19.6020 O.2       1 MOL        -0.3944
     15 CB         20.3620    5.9450   18.2560 C.3       1 MOL        -0.0244
     16 N          19.8180    7.2450   21.0460 N.am      1 MOL        -0.2640
     17 CA         19.7870    8.4860   21.8200 C.3       1 MOL         0.1281
     18 C          21.2480    8.8500   22.0540 C.2       1 MOL         0.2028
     19 O          21.8100    8.4710   23.0590 O.2       1 MOL        -0.3945
     20 CB         18.9120    8.3850   23.0900 C.3       1 MOL        -0.0244
     21 CA         23.2710    9.9450   21.1250 C.3       1 MOL         0.1313
     22 CB         24.0340    9.3730   19.8660 C.3       1 MOL        -0.0089
     23 CG         23.7680    7.8770   19.5290 C.3       1 MOL        -0.0431
     24 CD1        24.4990    7.6050   18.2160 C.3       1 MOL        -0.0625
     25 CD2        24.2550    6.9510   20.6750 C.3       1 MOL        -0.0625
     26 N          21.8890    9.5680   21.0820 N.am      1 MOL        -0.2641
     27 P          23.4550   11.7720   21.2390 P.3       1 MOL         0.1500
     28 O          22.5280   12.3220   20.3070 O.co2     1 MOL        -0.6187
     29 OH         24.8350   12.0870   21.2500 O.co2     1 MOL        -0.6187
     30 CA         23.5110   13.0420   23.5140 C.3       1 MOL         0.2011
     31 CB         22.3440   13.9090   24.0380 C.3       1 MOL         0.0314
     32 CG         21.3350   13.1520   24.8640 C.ar      1 MOL        -0.0378
     33 CD1        21.4040   13.3650   26.2640 C.ar      1 MOL        -0.0601
     34 CD2        20.3830   12.2980   24.3600 C.ar      1 MOL        -0.0601
     35 CE1        20.5450   12.7340   27.1390 C.ar      1 MOL        -0.0686
     36 CE2        19.5110   11.6810   25.2220 C.ar      1 MOL        -0.0686
     37 CZ         19.6040   11.8740   26.5980 C.ar      1 MOL        -0.0687
     38 C          24.2320   12.4970   24.7390 C.2       1 MOL         0.2708
     39 CS         25.7140   12.9990   26.6300 C.3       1 MOL         0.0659
     40 OP         22.9550   11.9420   22.7180 O.3       1 MOL        -0.2509
     41 OS         24.7390   13.3130   25.7410 O.3       1 MOL        -0.2778
     42 O          24.4070   11.3200   24.9200 O.2       1 MOL        -0.3668
     43 H1         13.8884    5.6319   18.2987 H         1 MOL         0.0776
     44 H2         14.7347    5.0597   19.7762 H         1 MOL         0.0776
     45 H3         13.3159    3.3013   20.5554 H         1 MOL         0.0557
     46 H4         14.5483    3.5002   16.4339 H         1 MOL         0.0557
     47 H5         12.3915    1.0319   20.2097 H         1 MOL         0.0599
     48 H6         13.6169    1.1965   16.0630 H         1 MOL         0.0599
     49 H7         12.4728    0.0257   17.9439 H         1 MOL         0.0559
     50 H8         18.1492    5.7360   17.4116 H         1 MOL         0.1899
     51 H9         19.3734    4.9184   19.9433 H         1 MOL         0.0796
     52 H10        21.2938    6.1297   18.8107 H         1 MOL         0.0277
     53 H11        20.1474    6.8041   17.6034 H         1 MOL         0.0277
     54 H12        20.4735    5.0381   17.6436 H         1 MOL         0.0277
     55 H13        20.4403    6.5070   21.3070 H         1 MOL         0.1883
     56 H14        19.3388    9.2733   21.1961 H         1 MOL         0.0797
     57 H15        18.9302    9.3459   23.6252 H         1 MOL         0.0277
     58 H16        19.3056    7.5933   23.7445 H         1 MOL         0.0277
     59 H17        17.8775    8.1440   22.8043 H         1 MOL         0.0277
     60 H18        23.7188    9.5021   22.0268 H         1 MOL         0.0786
     61 H19        25.1130    9.4912   20.0439 H         1 MOL         0.0306
     62 H20        23.7386    9.9725   18.9923 H         1 MOL         0.0306
     63 H21        22.6892    7.7160   19.3870 H         1 MOL         0.0297
     64 H22        24.3478    6.5556   17.9228 H         1 MOL         0.0232
     65 H23        25.5739    7.7975   18.3481 H         1 MOL         0.0232
     66 H24        24.1018    8.2658   17.4314 H         1 MOL         0.0232
     67 H25        23.7007    7.1848   21.5959 H         1 MOL         0.0232
     68 H26        25.3302    7.1107   20.8437 H         1 MOL         0.0232
     69 H27        24.0793    5.9011   20.3979 H         1 MOL         0.0232
     70 H28        21.3553    9.8499   20.2847 H         1 MOL         0.1871
     71 H29        24.1981   13.6422   22.8994 H         1 MOL         0.0945
     72 H30        21.8236   14.3463   23.1732 H         1 MOL         0.0482
     73 H31        22.7639   14.7141   24.6589 H         1 MOL         0.0482
     74 H32        22.1529   14.0428   26.6576 H         1 MOL         0.0557
     75 H33        20.3216   12.1138   23.2935 H         1 MOL         0.0557
     76 H34        20.6040   12.9044   28.2079 H         1 MOL         0.0599
     77 H35        18.7377   11.0332   24.8253 H         1 MOL         0.0599
     78 H36        18.9279   11.3417   27.2572 H         1 MOL         0.0559
     79 H37        25.8923   13.8558   27.2964 H         1 MOL         0.0577
     80 H38        26.6402   12.7570   26.0882 H         1 MOL         0.0577
     81 H39        25.4003   12.1296   27.2265 H         1 MOL         0.0577
@<TRIPOS>BOND
     1   12   11 1  
     2   12   15 1  
     3   13   12 1  
     4   13   14 2  
     5   17   16 1  
     6   17   20 1  
     7   18   17 1  
     8   18   19 2  
     9   16   13 am 
    10    1    2 2  
    11    1    3 1  
    12   11    1 am 
    13    3    4 1  
    14    4    5 1  
    15    5    6 ar 
    16    5    7 ar 
    17    6    8 ar 
    18    7    9 ar 
    19    8   10 ar 
    20    9   10 ar 
    21   21   22 1  
    22   21   26 1  
    23   27   21 1  
    24   22   23 1  
    25   23   24 1  
    26   23   25 1  
    27   26   18 am 
    28   27   28 ar 
    29   27   29 ar 
    30   30   31 1  
    31   30   38 1  
    32   40   30 1  
    33   31   32 1  
    34   32   33 ar 
    35   32   34 ar 
    36   33   35 ar 
    37   34   36 ar 
    38   35   37 ar 
    39   36   37 ar 
    40   38   41 1  
    41   38   42 2  
    42   40   27 1  
    43   41   39 1  
    44    4   43 1  
    45    4   44 1  
    46    6   45 1  
    47    7   46 1  
    48    8   47 1  
    49    9   48 1  
    50   10   49 1  
    51   11   50 1  
    52   12   51 1  
    53   15   52 1  
    54   15   53 1  
    55   15   54 1  
    56   16   55 1  
    57   17   56 1  
    58   20   57 1  
    59   20   58 1  
    60   20   59 1  
    61   21   60 1  
    62   22   61 1  
    63   22   62 1  
    64   23   63 1  
    65   24   64 1  
    66   24   65 1  
    67   24   66 1  
    68   25   67 1  
    69   25   68 1  
    70   25   69 1  
    71   26   70 1  
    72   30   71 1  
    73   31   72 1  
    74   31   73 1  
    75   33   74 1  
    76   34   75 1  
    77   35   76 1  
    78   36   77 1  
    79   37   78 1  
    80   39   79 1  
    81   39   80 1  
    82   39   81 1  
@<TRIPOS>SUBSTRUCTURE
     1 MOL         1

