### 
### Created by X-TOOL on Fri Nov 18 12:34:43 2016
### 

@<TRIPOS>MOLECULE
1egh_ligand
   11    10     1     0     0
SMALL
GAST_HUCK


@<TRIPOS>ATOM
      1 P          84.1830  -12.3000   66.6850 P.3       1 PGA         0.2032
      2 O1P        85.3810  -13.1100   65.9940 O.3       1 PGA        -0.2622
      3 O2P        84.6390  -12.2180   68.0790 O.co2     1 PGA        -0.5536
      4 O3P        84.1630  -11.0260   65.8950 O.co2     1 PGA        -0.5536
      5 O4P        82.9580  -13.1100   66.5040 O.co2     1 PGA        -0.5536
      6 C2         85.7690  -14.3460   66.5540 C.3       1 PGA         0.1305
      7 C1         86.3070  -15.2870   65.5050 C.2       1 PGA         0.0653
      8 O1         85.5590  -15.5910   64.5500 O.co2     1 PGA        -0.5663
      9 O2         87.4780  -15.7190   65.6330 O.co2     1 PGA        -0.5663
     10 H1         84.8953  -14.8098   67.0351 H         1 PGA         0.0783
     11 H2         86.5504  -14.1670   67.3072 H         1 PGA         0.0783
@<TRIPOS>BOND
     1    1    5 ar 
     2    1    4 ar 
     3    1    3 ar 
     4    1    2 1  
     5    2    6 1  
     6    6    7 1  
     7    7    9 ar 
     8    7    8 ar 
     9    6   10 1  
    10    6   11 1  
@<TRIPOS>SUBSTRUCTURE
     1 PGA         1

