### 
### Created by X-TOOL on Fri Nov 18 14:40:23 2016
### 

@<TRIPOS>MOLECULE
2py4_ligand
   40    41     1     0     0
SMALL
GAST_HUCK


@<TRIPOS>ATOM
      1 O4         16.7090   14.9670   41.4770 O.2       1 DUP        -0.4124
      2 C4         15.9050   14.1450   41.0080 C.2       1 DUP         0.1822
      3 C5         16.2740   12.8990   40.5010 C.2       1 DUP         0.0062
      4 C6         15.2530   12.0430   40.0280 C.2       1 DUP         0.0590
      5 N3         14.5800   14.5380   40.9840 N.am      1 DUP        -0.1865
      6 C2         13.5870   13.7230   40.4540 C.2       1 DUP         0.3327
      7 O2         12.4080   14.1300   40.4510 O.2       1 DUP        -0.3815
      8 N1         13.9450   12.4850   40.0030 N.am      1 DUP        -0.1618
      9 C1'        12.9330   11.5940   39.4020 C.3       1 DUP         0.1800
     10 C2'        13.0720   11.6920   37.8800 C.3       1 DUP         0.0316
     11 C3'        13.9070   10.4420   37.5540 C.3       1 DUP         0.0890
     12 O3'        13.6600    9.9490   36.2110 O.3       1 DUP        -0.3889
     13 O4'        13.2120   10.2440   39.7640 O.3       1 DUP        -0.3386
     14 C4'        13.4250    9.4790   38.5750 C.3       1 DUP         0.1166
     15 C5'        14.3510    8.3170   38.9130 C.3       1 DUP         0.1132
     16 O5'        15.6040    8.9000   39.2920 O.3       1 DUP        -0.2529
     17 PA         16.8190    7.9220   39.7510 P.3       1 DUP         0.2362
     18 O1A        16.8740    6.7810   38.7370 O.co2     1 DUP        -0.6036
     19 O2A        18.0370    8.8320   39.7780 O.co2     1 DUP        -0.6036
     20 N3A        16.4260    7.4080   41.2300 N.am      1 DUP        -0.1581
     21 PB         15.9740    5.8300   41.5500 P.3       1 DUP         0.2871
     22 O1B        16.7370    4.8170   40.7530 O.co2     1 DUP        -0.5685
     23 O2B        15.9910    5.6750   43.0690 O.co2     1 DUP        -0.5685
     24 O3B        14.4630    5.6770   41.0790 O.3       1 DUP        -0.1659
     25 PG         13.8600    4.6550   40.0190 P.3       1 DUP         0.2047
     26 O2G        14.7180    4.6950   38.7880 O.co2     1 DUP        -0.5893
     27 O1G        13.9080    3.3610   40.7640 O.co2     1 DUP        -0.5893
     28 O3G        12.4530    5.1550   39.7320 O.co2     1 DUP        -0.5893
     29 H1         17.3190   12.5942   40.4704 H         1 DUP         0.0258
     30 H2         15.4972   11.0388   39.6847 H         1 DUP         0.1178
     31 H3         14.3297   15.4313   41.3574 H         1 DUP         0.2259
     32 H4         11.9222   11.8824   39.7262 H         1 DUP         0.0970
     33 H5         13.5979   12.6120   37.5851 H         1 DUP         0.0345
     34 H6         12.0899   11.6566   37.3858 H         1 DUP         0.0345
     35 H7         14.9817   10.6440   37.6727 H         1 DUP         0.0622
     36 H8         14.1947    9.1796   36.0540 H         1 DUP         0.2099
     37 H9         12.4715    9.0565   38.2254 H         1 DUP         0.0650
     38 H10        14.4830    7.6671   38.0354 H         1 DUP         0.0651
     39 H11        13.9368    7.7293   39.7455 H         1 DUP         0.0651
     40 H12        16.4540    8.0609   41.9869 H         1 DUP         0.2175
@<TRIPOS>BOND
     1    1    2 2  
     2    2    3 1  
     3    2    5 am 
     4    3    4 2  
     5    4    8 1  
     6    5    6 am 
     7    6    7 2  
     8    6    8 am 
     9    8    9 1  
    10    9   10 1  
    11    9   13 1  
    12   10   11 1  
    13   11   12 1  
    14   11   14 1  
    15   13   14 1  
    16   14   15 1  
    17   15   16 1  
    18   16   17 1  
    19   17   18 ar 
    20   17   19 ar 
    21   17   20 am 
    22   20   21 1  
    23   21   22 ar 
    24   21   23 ar 
    25   21   24 1  
    26   24   25 1  
    27   25   26 ar 
    28   25   27 ar 
    29   25   28 ar 
    30    3   29 1  
    31    4   30 1  
    32    5   31 1  
    33    9   32 1  
    34   10   33 1  
    35   10   34 1  
    36   11   35 1  
    37   12   36 1  
    38   14   37 1  
    39   15   38 1  
    40   15   39 1  
    41   20   40 1  
@<TRIPOS>SUBSTRUCTURE
     1 DUP         1

