### 
### Created by X-TOOL on Wed Dec 13 14:20:10 2017
### 

@<TRIPOS>MOLECULE
5jvi_ligand
   62    62     1     0     0
SMALL
GAST_HUCK


@<TRIPOS>ATOM
      1 C1         16.1670   41.3520  -10.6390 C.ar      1 MOL        -0.0578
      2 C2         17.4220   40.9910  -11.1100 C.ar      1 MOL        -0.0685
      3 C3         17.5720   40.4250  -12.3850 C.ar      1 MOL        -0.0687
      4 C7         13.6580   41.6140  -10.8750 C.3       1 MOL         0.1113
      5 C9         12.6710   40.8970   -8.8340 C.2       1 MOL         0.3229
      6 C12        11.9850   40.1170   -6.6920 C.3       1 MOL         0.1132
      7 C19         9.3500   37.9610   -1.2030 C.3       1 MOL        -0.0429
      8 C20         9.1840   36.4430   -1.3410 C.3       1 MOL        -0.0625
      9 C21         9.6170   38.3930    0.2550 C.3       1 MOL        -0.0625
     10 C22         8.8880   39.2900   -3.9160 C.2       1 MOL         0.1977
     11 C27         8.4440   42.6220   -1.9660 C.3       1 MOL        -0.0606
     12 O15        10.1660   38.0870   -6.5440 O.co2     1 MOL        -0.6057
     13 P13        11.5120   38.5090   -5.9760 P.3       1 MOL         0.0870
     14 C6         15.0170   41.1860  -11.4310 C.ar      1 MOL        -0.0130
     15 C4         16.4170   40.2900  -13.1720 C.ar      1 MOL        -0.0685
     16 C5         15.1400   40.6590  -12.7070 C.ar      1 MOL        -0.0578
     17 N16        11.2960   38.9010   -4.3060 N.am      1 MOL        -0.2736
     18 C17        10.1060   38.4330   -3.6240 C.3       1 MOL         0.1228
     19 C18        10.4370   38.4950   -2.1260 C.3       1 MOL        -0.0137
     20 O23         7.7610   38.7970   -3.8840 O.2       1 MOL        -0.3950
     21 N24         9.1110   40.5850   -4.1210 N.am      1 MOL        -0.2851
     22 C25         8.0350   41.5480   -4.3520 C.3       1 MOL         0.0335
     23 C26         8.2680   42.8380   -3.4740 C.3       1 MOL        -0.0239
     24 C28         7.2130   43.9170   -3.7790 C.3       1 MOL        -0.0515
     25 C29         5.8590   43.2780   -3.5270 C.3       1 MOL        -0.0650
     26 O14        12.5870   37.5020   -6.2010 O.co2     1 MOL        -0.6057
     27 N11        12.7420   39.9440   -7.9050 N.am      1 MOL        -0.2448
     28 O10        11.9890   41.9080   -8.7830 O.2       1 MOL        -0.3774
     29 O8         13.4690   40.5870   -9.8520 O.3       1 MOL        -0.2506
     30 H1         16.0719   41.7692   -9.6430 H         1 MOL         0.0557
     31 H2         18.2947   41.1480  -10.4865 H         1 MOL         0.0599
     32 H3         18.5417   40.1044  -12.7483 H         1 MOL         0.0559
     33 H4         12.8717   41.5748  -11.6432 H         1 MOL         0.0776
     34 H5         13.6946   42.6231  -10.4388 H         1 MOL         0.0776
     35 H6         12.5966   40.6686   -5.9629 H         1 MOL         0.0743
     36 H7         11.0744   40.6919   -6.9162 H         1 MOL         0.0743
     37 H8          8.3994   38.4200   -1.5121 H         1 MOL         0.0298
     38 H9          8.3921   36.0974   -0.6602 H         1 MOL         0.0232
     39 H10        10.1310   35.9457   -1.0843 H         1 MOL         0.0232
     40 H11         8.9097   36.1968   -2.3774 H         1 MOL         0.0232
     41 H12         9.7280   39.4865    0.2989 H         1 MOL         0.0232
     42 H13        10.5403   37.9160    0.6156 H         1 MOL         0.0232
     43 H14         8.7730   38.0844    0.8893 H         1 MOL         0.0232
     44 H15         9.2040   41.8458   -1.7930 H         1 MOL         0.0233
     45 H16         7.4873   42.3025   -1.5272 H         1 MOL         0.0233
     46 H17         8.7670   43.5626   -1.4961 H         1 MOL         0.0233
     47 H18        16.5118   39.8871  -14.1739 H         1 MOL         0.0599
     48 H19        14.2670   40.5329  -13.3371 H         1 MOL         0.0557
     49 H20        11.9813   39.4420   -3.8185 H         1 MOL         0.1669
     50 H21         9.8913   37.3967   -3.9239 H         1 MOL         0.0753
     51 H22        11.3501   37.9063   -1.9539 H         1 MOL         0.0311
     52 H23        10.6232   39.5463   -1.8612 H         1 MOL         0.0311
     53 H24        10.0552   40.9144   -4.1170 H         1 MOL         0.1851
     54 H25         7.0723   41.0909   -4.0795 H         1 MOL         0.0522
     55 H26         8.0196   41.8290   -5.4154 H         1 MOL         0.0522
     56 H27         9.2297   43.2477   -3.8165 H         1 MOL         0.0317
     57 H28         7.2917   44.2400   -4.8275 H         1 MOL         0.0266
     58 H29         7.3534   44.7840   -3.1167 H         1 MOL         0.0266
     59 H30         5.0642   44.0105   -3.7312 H         1 MOL         0.0230
     60 H31         5.7967   42.9523   -2.4782 H         1 MOL         0.0230
     61 H32         5.7350   42.4083   -4.1890 H         1 MOL         0.0230
     62 H33        13.3059   39.1304   -8.0464 H         1 MOL         0.1884
@<TRIPOS>BOND
     1    1    2 ar 
     2   14    1 ar 
     3    2    3 ar 
     4   15    3 ar 
     5    4   14 1  
     6   29    4 1  
     7   27    5 am 
     8    5   28 2  
     9    5   29 1  
    10   13    6 1  
    11    6   27 1  
    12    7    8 1  
    13    7    9 1  
    14   19    7 1  
    15   10   18 1  
    16   10   20 2  
    17   21   10 am 
    18   23   11 1  
    19   13   12 ar 
    20   17   13 am 
    21   13   26 ar 
    22   14   16 ar 
    23   16   15 ar 
    24   18   17 1  
    25   18   19 1  
    26   22   21 1  
    27   22   23 1  
    28   23   24 1  
    29   24   25 1  
    30    1   30 1  
    31    2   31 1  
    32    3   32 1  
    33    4   33 1  
    34    4   34 1  
    35    6   35 1  
    36    6   36 1  
    37    7   37 1  
    38    8   38 1  
    39    8   39 1  
    40    8   40 1  
    41    9   41 1  
    42    9   42 1  
    43    9   43 1  
    44   11   44 1  
    45   11   45 1  
    46   11   46 1  
    47   15   47 1  
    48   16   48 1  
    49   17   49 1  
    50   18   50 1  
    51   19   51 1  
    52   19   52 1  
    53   21   53 1  
    54   22   54 1  
    55   22   55 1  
    56   23   56 1  
    57   24   57 1  
    58   24   58 1  
    59   25   59 1  
    60   25   60 1  
    61   25   61 1  
    62   27   62 1  
@<TRIPOS>SUBSTRUCTURE
     1 MOL         1

