### 
### Created by X-TOOL on Fri Nov 18 14:45:58 2016
### 

@<TRIPOS>MOLECULE
2nsl_ligand
   33    34     1     0     0
SMALL
GAST_HUCK


@<TRIPOS>ATOM
      1 PA         15.5900  -11.6380   -9.4290 P.3       1 C2R         0.2008
      2 O1A        16.4120  -12.9650   -9.0360 O.co2     1 C2R        -0.5537
      3 O2A        14.5510  -11.3900   -8.2250 O.co2     1 C2R        -0.5537
      4 O3A        16.4640  -10.4730   -9.6880 O.co2     1 C2R        -0.5537
      5 N1         14.6290  -13.9900  -15.0020 N.pl3     1 C2R        -0.1968
      6 C5         14.5190  -14.3090  -16.2870 C.2       1 C2R         0.1617
      7 C4         15.5330  -15.2080  -16.5790 C.2       1 C2R         0.0587
      8 N3         16.2440  -15.3900  -15.4710 N.2       1 C2R        -0.3378
      9 C2         15.6860  -14.6420  -14.5190 C.2       1 C2R         0.0912
     10 N5         13.6380  -13.8050  -17.1480 N.pl3     1 C2R        -0.3116
     11 C6         15.7230  -15.9450  -17.9060 C.2       1 C2R         0.0363
     12 O7         14.9970  -15.6090  -18.8670 O.co2     1 C2R        -0.5763
     13 O8         16.5850  -16.8500  -17.9530 O.co2     1 C2R        -0.5763
     14 O5'        14.6990  -12.0440  -10.7070 O.3       1 C2R        -0.2734
     15 C2'        13.1420  -14.0120  -13.0640 C.3       1 C2R         0.1388
     16 O2'        12.1960  -14.9550  -13.5740 O.3       1 C2R        -0.3836
     17 C3'        12.4230  -12.9180  -12.2750 C.3       1 C2R         0.1149
     18 O3'        11.0870  -12.7740  -12.7640 O.3       1 C2R        -0.3864
     19 C5'        13.8620  -11.0750  -11.3420 C.3       1 C2R         0.1072
     20 C4'        13.2410  -11.6660  -12.6090 C.3       1 C2R         0.1182
     21 O4'        14.2830  -12.0960  -13.5020 O.3       1 C2R        -0.3362
     22 C1'        13.6720  -13.1730  -14.2240 C.3       1 C2R         0.2007
     23 H1         16.0432  -14.5735  -13.4925 H         1 C2R         0.1117
     24 H2         13.6366  -14.1217  -18.1281 H         1 C2R         0.1769
     25 H3         12.9576  -13.0983  -16.8342 H         1 C2R         0.1769
     26 H4         13.9339  -14.5123  -12.4872 H         1 C2R         0.0677
     27 H5         11.7241  -15.3512  -12.8509 H         1 C2R         0.2101
     28 H6         12.4172  -13.1268  -11.1950 H         1 C2R         0.0648
     29 H7         10.6226  -13.5962  -12.6601 H         1 C2R         0.2100
     30 H8         14.4636  -10.1936  -11.6088 H         1 C2R         0.0639
     31 H9         13.0611  -10.7764  -10.6496 H         1 C2R         0.0639
     32 H10        12.6041  -10.9120  -13.0946 H         1 C2R         0.0650
     33 H11        12.8695  -12.8105  -14.8832 H         1 C2R         0.1000
@<TRIPOS>BOND
     1    1    2 ar 
     2    1    3 ar 
     3    1    4 ar 
     4   14    1 1  
     5    5    6 1  
     6    5    9 1  
     7   22    5 1  
     8    6    7 2  
     9    6   10 1  
    10    8    7 1  
    11    7   11 1  
    12    9    8 2  
    13   11   12 ar 
    14   11   13 ar 
    15   19   14 1  
    16   15   16 1  
    17   17   15 1  
    18   15   22 1  
    19   17   18 1  
    20   20   17 1  
    21   19   20 1  
    22   20   21 1  
    23   21   22 1  
    24    9   23 1  
    25   10   24 1  
    26   10   25 1  
    27   15   26 1  
    28   16   27 1  
    29   17   28 1  
    30   18   29 1  
    31   19   30 1  
    32   19   31 1  
    33   20   32 1  
    34   22   33 1  
@<TRIPOS>SUBSTRUCTURE
     1 C2R         1

