### 
### Created by X-TOOL on Fri Nov 18 15:05:09 2016
### 

@<TRIPOS>MOLECULE
3c56_ligand
   27    26     1     0     0
SMALL
GAST_HUCK


@<TRIPOS>ATOM
      1 N3         -3.4260   -4.5140   -5.5940 N.am      1 PH4        -0.1484
      2 C4         -3.9850   -5.2340   -6.7380 C.3       1 PH4         0.0653
      3 C5         -5.5230   -5.2930   -6.6130 C.3       1 PH4        -0.0019
      4 C6         -6.1020   -6.1650   -7.7430 C.3       1 PH4         0.0804
      5 O62        -7.4110   -7.7140   -9.8340 O.co2     1 PH4        -0.5537
      6 P6         -8.0550   -6.2300   -9.5150 P.3       1 PH4         0.2007
      7 O63        -8.0840   -5.3350  -10.8970 O.co2     1 PH4        -0.5537
      8 O61        -9.4150   -6.3880   -9.0100 O.co2     1 PH4        -0.5537
      9 O6         -7.1340   -5.4650   -8.3850 O.3       1 PH4        -0.2760
     10 O3         -3.6690   -4.9730   -4.2880 O.3       1 PH4        -0.2690
     11 C2         -2.6120   -3.3170   -5.8070 C.2       1 PH4         0.2322
     12 O2         -2.1580   -2.7330   -4.8760 O.2       1 PH4        -0.3938
     13 C1         -2.3440   -2.8130   -7.2350 C.3       1 PH4         0.1688
     14 O1         -1.3840   -1.7920   -7.1970 O.3       1 PH4        -0.2560
     15 P1         -0.8590   -1.1120   -8.6110 P.3       1 PH4         0.2041
     16 O12        -2.1540   -0.7840   -9.5770 O.co2     1 PH4        -0.5536
     17 O13         0.1530   -2.1610   -9.3830 O.co2     1 PH4        -0.5536
     18 O11        -0.1450    0.1260   -8.3220 O.co2     1 PH4        -0.5536
     19 H1         -3.5802   -6.2566   -6.7601 H         1 PH4         0.0551
     20 H2         -3.7132   -4.7119   -7.6673 H         1 PH4         0.0551
     21 H3         -5.9354   -4.2760   -6.6880 H         1 PH4         0.0311
     22 H4         -5.7945   -5.7279   -5.6398 H         1 PH4         0.0311
     23 H5         -6.4995   -7.0992   -7.3196 H         1 PH4         0.0613
     24 H6         -5.3097   -6.3995   -8.4692 H         1 PH4         0.0613
     25 H7         -3.3273   -5.8545   -4.1946 H         1 PH4         0.2493
     26 H8         -3.2772   -2.4231   -7.6676 H         1 PH4         0.0857
     27 H9         -1.9721   -3.6433   -7.8533 H         1 PH4         0.0857
@<TRIPOS>BOND
     1    2    1 1  
     2    1   10 1  
     3    1   11 am 
     4    3    2 1  
     5    4    3 1  
     6    9    4 1  
     7    6    5 ar 
     8    6    7 ar 
     9    6    8 ar 
    10    6    9 1  
    11   11   12 2  
    12   11   13 1  
    13   13   14 1  
    14   14   15 1  
    15   15   16 ar 
    16   15   17 ar 
    17   15   18 ar 
    18    2   19 1  
    19    2   20 1  
    20    3   21 1  
    21    3   22 1  
    22    4   23 1  
    23    4   24 1  
    24   10   25 1  
    25   13   26 1  
    26   13   27 1  
@<TRIPOS>SUBSTRUCTURE
     1 PH4         1

