### 
### Created by X-TOOL on Wed Dec 13 14:18:28 2017
### 

@<TRIPOS>MOLECULE
5exw_ligand
   44    46     1     0     0
SMALL
GAST_HUCK


@<TRIPOS>ATOM
      1 O3G        20.6520    0.8170    5.4020 O.co2     1 MOL        -0.6091
      2 PG         19.8900    1.4500    4.2290 P.3       1 MOL         0.1879
      3 O2G        20.7870    2.3310    3.4190 O.co2     1 MOL        -0.6091
      4 O1G        18.5480    2.0140    4.5390 O.co2     1 MOL        -0.6091
      5 O3B        19.5560    0.2140    3.2440 O.3       1 MOL        -0.1546
      6 PB         20.5720   -0.6220    2.4280 P.3       1 MOL         0.3553
      7 O2B        20.4070   -0.5190    0.9250 O.co2     1 MOL        -0.5652
      8 O1B        21.9930   -0.4680    2.9970 O.co2     1 MOL        -0.5652
      9 O3A        20.1360   -2.1150    2.8620 O.3       1 MOL        -0.1171
     10 PA         19.0950   -3.1360    2.2540 P.3       1 MOL         0.3266
     11 O1A        19.8410   -4.2800    1.6350 O.co2     1 MOL        -0.5692
     12 O2A        18.1020   -2.4740    1.3640 O.co2     1 MOL        -0.5692
     13 O5'        18.3460   -3.6470    3.5360 O.3       1 MOL        -0.2441
     14 C5'        19.0190   -4.3750    4.5950 C.3       1 MOL         0.1131
     15 C4'        18.0180   -4.8160    5.6360 C.3       1 MOL         0.1189
     16 O4'        17.1570   -5.7320    4.9520 O.3       1 MOL        -0.3368
     17 C1'        16.9750   -6.8470    5.7940 C.3       1 MOL         0.1959
     18 N9         16.5220   -8.0460    5.0620 N.pl3     1 MOL        -0.2236
     19 C8         17.1560   -8.6140    4.0070 C.2       1 MOL         0.0302
     20 C20        16.4500   -9.7270    3.6060 C.2       1 MOL        -0.0543
     21 C5         15.3430   -9.8460    4.3970 C.ar      1 MOL         0.0433
     22 C6         14.2360  -10.7560    4.5020 C.ar      1 MOL         0.1162
     23 N6         14.1620  -11.8120    3.6280 N.pl3     1 MOL        -0.3157
     24 N1         13.3470  -10.5410    5.4300 N.ar      1 MOL        -0.2733
     25 C2         13.4690   -9.4750    6.2620 C.ar      1 MOL         0.0500
     26 N3         14.4600   -8.5690    6.2510 N.ar      1 MOL        -0.2771
     27 C4         15.3890   -8.7760    5.3190 C.ar      1 MOL         0.1399
     28 C2'        18.3690   -7.0840    6.4110 C.3       1 MOL         0.1381
     29 O2'        18.3280   -7.8210    7.6150 O.3       1 MOL        -0.3836
     30 C3'        18.7340   -5.6100    6.7420 C.3       1 MOL         0.1149
     31 O3'        18.1780   -5.2220    7.9670 O.3       1 MOL        -0.3864
     32 H1         19.7698   -3.7229    5.0650 H         1 MOL         0.0648
     33 H2         19.5160   -5.2595    4.1700 H         1 MOL         0.0648
     34 H3         17.4660   -3.9616    6.0546 H         1 MOL         0.0651
     35 H4         16.2409   -6.6118    6.5787 H         1 MOL         0.0991
     36 H5         18.0749   -8.2494    3.5502 H         1 MOL         0.0924
     37 H6         16.7278  -10.3987    2.7950 H         1 MOL         0.0311
     38 H7         13.3763  -12.4753    3.6871 H         1 MOL         0.1826
     39 H8         14.8922  -11.9410    2.9131 H         1 MOL         0.1826
     40 H9         12.6921   -9.3427    7.0063 H         1 MOL         0.0975
     41 H10        19.0643   -7.5536    5.6997 H         1 MOL         0.0676
     42 H11        17.8069   -7.3508    8.2552 H         1 MOL         0.2101
     43 H12        19.8221   -5.4488    6.7371 H         1 MOL         0.0648
     44 H13        18.5124   -5.7828    8.6570 H         1 MOL         0.2100
@<TRIPOS>BOND
     1    1    2 ar 
     2    2    3 ar 
     3    2    4 ar 
     4    2    5 1  
     5    5    6 1  
     6    6    7 ar 
     7    6    8 ar 
     8    6    9 1  
     9    9   10 1  
    10   10   11 ar 
    11   10   12 ar 
    12   10   13 1  
    13   13   14 1  
    14   14   15 1  
    15   15   16 1  
    16   15   30 1  
    17   16   17 1  
    18   17   18 1  
    19   17   28 1  
    20   18   19 1  
    21   18   27 1  
    22   19   20 2  
    23   20   21 1  
    24   21   22 ar 
    25   21   27 ar 
    26   22   23 1  
    27   22   24 ar 
    28   24   25 ar 
    29   25   26 ar 
    30   26   27 ar 
    31   28   29 1  
    32   28   30 1  
    33   30   31 1  
    34   14   32 1  
    35   14   33 1  
    36   15   34 1  
    37   17   35 1  
    38   19   36 1  
    39   20   37 1  
    40   23   38 1  
    41   23   39 1  
    42   25   40 1  
    43   28   41 1  
    44   29   42 1  
    45   30   43 1  
    46   31   44 1  
@<TRIPOS>SUBSTRUCTURE
     1 MOL         1

