### 
### Created by X-TOOL on Fri Nov 18 17:45:58 2016
### 

@<TRIPOS>MOLECULE
4muv_ligand
   35    38     1     0     0
SMALL
GAST_HUCK


@<TRIPOS>ATOM
      1 PA         12.8990   -0.8020   88.9850 P.3       1 PCG         0.2557
      2 O1A        11.6160   -0.1600   88.4990 O.co2     1 PCG        -0.6177
      3 O2A        12.8330   -1.5160   90.2880 O.co2     1 PCG        -0.6177
      4 O5'        13.9870    0.2920   89.0710 O.3       1 PCG        -0.2514
      5 C5'        15.2950   -0.0580   89.1370 C.3       1 PCG         0.1128
      6 C4'        15.6010   -0.9850   87.9470 C.3       1 PCG         0.1243
      7 O4'        16.9810   -1.4780   87.7680 O.3       1 PCG        -0.3343
      8 C3'        14.8090   -2.1090   88.0200 C.3       1 PCG         0.1541
      9 O3'        13.3880   -1.8060   87.8550 O.3       1 PCG        -0.2453
     10 C2'        15.4280   -3.0090   86.8740 C.3       1 PCG         0.1461
     11 O2'        14.7510   -2.7320   85.6480 O.3       1 PCG        -0.3831
     12 C1'        16.7810   -2.6330   86.8150 C.3       1 PCG         0.2222
     13 N9         17.7490   -3.6400   87.1330 N.pl3     1 PCG        -0.0954
     14 C8         18.7030   -4.1700   86.2980 C.2       1 PCG         0.1855
     15 N7         19.3680   -5.1680   86.8830 N.2       1 PCG        -0.1929
     16 C5         18.8220   -5.2770   88.1390 C.2       1 PCG         0.2558
     17 C6         19.1130   -6.1680   89.2280 C.2       1 PCG         0.2628
     18 O6         19.9910   -7.0650   89.2270 O.2       1 PCG        -0.3594
     19 N1         18.3380   -5.9690   90.3450 N.am      1 PCG        -0.2478
     20 C2         17.3170   -5.0350   90.4280 C.cat     1 PCG         0.2041
     21 N2         16.6080   -4.9430   91.5680 N.pl3     1 PCG        -0.3327
     22 N3         17.0090   -4.1670   89.4120 N.pl3     1 PCG        -0.1901
     23 C4         17.8140   -4.3510   88.2680 C.2       1 PCG         0.3268
     24 H          15.4928   -0.5858   90.0816 H         1 PCG         0.0647
     25 H          15.9253    0.8417   89.0807 H         1 PCG         0.0647
     26 H          15.3387   -0.4214   87.0395 H         1 PCG         0.0655
     27 H          14.9362   -2.6035   88.9943 H         1 PCG         0.0712
     28 H          15.3346   -4.0779   87.1161 H         1 PCG         0.0681
     29 H          13.8268   -2.9288   85.7464 H         1 PCG         0.2102
     30 H          16.9841   -2.2948   85.7882 H         1 PCG         0.1022
     31 H          18.8927   -3.8191   85.2847 H         1 PCG         0.1823
     32 H          18.5222   -6.5339   91.1493 H         1 PCG         0.1819
     33 H          15.8460   -4.2544   91.6464 H         1 PCG         0.1774
     34 H          16.8273   -5.5612   92.3622 H         1 PCG         0.1774
     35 H          16.2675   -3.4551   89.4772 H         1 PCG         0.2519
@<TRIPOS>BOND
     1    1    2 ar 
     2    1    3 ar 
     3    1    4 1  
     4    1    9 1  
     5    4    5 1  
     6    5    6 1  
     7    6    7 1  
     8    6    8 1  
     9    7   12 1  
    10    8    9 1  
    11    8   10 1  
    12   10   11 1  
    13   10   12 1  
    14   12   13 1  
    15   13   14 1  
    16   13   23 1  
    17   14   15 2  
    18   15   16 1  
    19   16   17 1  
    20   16   23 2  
    21   17   18 2  
    22   17   19 am 
    23   19   20 ar 
    24   20   21 ar 
    25   20   22 ar 
    26   22   23 1  
    27    5   24 1  
    28    5   25 1  
    29    6   26 1  
    30    8   27 1  
    31   10   28 1  
    32   11   29 1  
    33   12   30 1  
    34   14   31 1  
    35   19   32 1  
    36   21   33 1  
    37   21   34 1  
    38   22   35 1  
@<TRIPOS>SUBSTRUCTURE
     1 PCG         1

