### 
### Created by X-TOOL on Fri Nov 18 16:34:14 2016
### 

@<TRIPOS>MOLECULE
3pju_ligand
   68    74     1     0     0
SMALL
GAST_HUCK


@<TRIPOS>ATOM
      1 P1         29.1140   33.4840    4.7330 P.3       1 C2E         0.2557
      2 O2P        28.8680   32.8920    6.1040 O.co2     1 C2E        -0.6177
      3 O1P        28.4860   32.5680    3.7030 O.co2     1 C2E        -0.6177
      4 O5'        28.3360   34.8690    4.7310 O.3       1 C2E        -0.2514
      5 C5'        28.0560   35.4950    3.5200 C.3       1 C2E         0.1128
      6 C4'        29.0650   36.5020    3.0370 C.3       1 C2E         0.1242
      7 O4'        28.6810   36.9540    1.7660 O.3       1 C2E        -0.3359
      8 C3'        29.1450   37.7670    3.8590 C.3       1 C2E         0.1540
      9 O3'        30.3150   38.4630    3.5660 O.3       1 C2E        -0.2453
     10 C2'        28.0330   38.4800    3.3750 C.3       1 C2E         0.1440
     11 O2'        28.0920   39.9030    3.5380 O.3       1 C2E        -0.3832
     12 C1'        27.9360   38.1220    1.9710 C.3       1 C2E         0.1996
     13 N9         26.4970   37.9580    1.3460 N.pl3     1 C2E        -0.2101
     14 C8         25.4030   37.5840    2.0440 C.2       1 C2E         0.0957
     15 N7         24.3820   37.4890    1.1790 N.2       1 C2E        -0.3235
     16 C5         24.8450   37.7870   -0.0590 C.2       1 C2E         0.0926
     17 C6         24.2240   37.8420   -1.3090 C.2       1 C2E         0.2135
     18 O6         22.8660   37.5800   -1.4450 O.2       1 C2E        -0.4091
     19 N1         24.9740   38.1950   -2.3740 N.am      1 C2E        -0.1839
     20 C2         26.2860   38.4770   -2.2530 C.2       1 C2E         0.2340
     21 N2         27.0180   38.8320   -3.4330 N.pl3     1 C2E        -0.2807
     22 N3         26.9130   38.4230   -1.0610 N.2       1 C2E        -0.2765
     23 C4         26.2140   38.0910    0.0420 C.2       1 C2E         0.1159
     24 P11        31.4350   38.5310    4.6700 P.3       1 C2E         0.2557
     25 O21        30.8090   38.5990    6.0450 O.co2     1 C2E        -0.6177
     26 O11        32.4010   39.6740    4.4880 O.co2     1 C2E        -0.6177
     27 O5A        32.3780   37.3130    4.5310 O.3       1 C2E        -0.2514
     28 C5A        31.9660   36.3290    5.3590 C.3       1 C2E         0.1128
     29 C4A        32.4760   35.0500    4.8860 C.3       1 C2E         0.1242
     30 O4A        33.7570   34.8980    5.5700 O.3       1 C2E        -0.3359
     31 C3A        31.4870   34.0790    5.4110 C.3       1 C2E         0.1540
     32 O3A        30.6590   33.5220    4.4310 O.3       1 C2E        -0.2453
     33 C2A        32.2880   33.1830    6.2630 C.3       1 C2E         0.1440
     34 O2A        32.5690   32.0200    5.6200 O.3       1 C2E        -0.3832
     35 C1A        33.5320   34.0000    6.6120 C.3       1 C2E         0.1996
     36 N91        33.5320   34.5560    8.1020 N.pl3     1 C2E        -0.2101
     37 C81        32.6950   35.4980    8.5710 C.2       1 C2E         0.0957
     38 N71        32.7980   35.5730    9.9100 N.2       1 C2E        -0.3235
     39 C51        33.7110   34.6570   10.3010 C.2       1 C2E         0.0926
     40 C61        34.2340   34.2770   11.5380 C.2       1 C2E         0.2135
     41 O61        33.7770   34.8690   12.6960 O.2       1 C2E        -0.4091
     42 N11        35.1580   33.2900   11.5830 N.am      1 C2E        -0.1839
     43 C21        35.5890   32.6710   10.4770 C.2       1 C2E         0.2340
     44 N21        36.6160   31.6810   10.5560 N.pl3     1 C2E        -0.2807
     45 N31        35.0890   33.0300    9.2810 N.2       1 C2E        -0.2765
     46 C41        34.1640   34.0040    9.1520 C.2       1 C2E         0.1159
     47 H1         27.0913   36.0128    3.6263 H         1 C2E         0.0647
     48 H2         27.9697   34.7129    2.7513 H         1 C2E         0.0647
     49 H3         30.0536   36.0210    3.0009 H         1 C2E         0.0655
     50 H4         29.0756   37.5666    4.9383 H         1 C2E         0.0712
     51 H5         27.1359   38.1267    3.9046 H         1 C2E         0.0681
     52 H6         28.8497   40.2424    3.0762 H         1 C2E         0.2102
     53 H7         28.4192   38.9356    1.4102 H         1 C2E         0.0998
     54 H8         25.3578   37.3939    3.1153 H         1 C2E         0.1179
     55 H9         24.5451   38.2486   -3.2758 H         1 C2E         0.2515
     56 H10        28.0221   39.0524   -3.3693 H         1 C2E         0.1897
     57 H11        26.5399   38.8667   -4.3447 H         1 C2E         0.1897
     58 H12        30.8665   36.3012    5.3766 H         1 C2E         0.0647
     59 H13        32.3442   36.5216    6.3738 H         1 C2E         0.0647
     60 H14        32.5801   34.9922    3.7925 H         1 C2E         0.0655
     61 H15        30.8043   34.6242    6.0793 H         1 C2E         0.0712
     62 H16        31.7348   32.9434    7.1831 H         1 C2E         0.0681
     63 H17        31.7577   31.5805    5.3937 H         1 C2E         0.2102
     64 H18        34.3804   33.3004    6.5832 H         1 C2E         0.0998
     65 H19        32.0331   36.1086    7.9587 H         1 C2E         0.1179
     66 H20        35.5304   33.0144   12.4692 H         1 C2E         0.2515
     67 H21        36.9429   31.2087    9.7010 H         1 C2E         0.1897
     68 H22        37.0296   31.4396   11.4679 H         1 C2E         0.1897
@<TRIPOS>BOND
     1    1    2 ar 
     2    1    3 ar 
     3    1    4 1  
     4    1   32 1  
     5    4    5 1  
     6    5    6 1  
     7    6    7 1  
     8    6    8 1  
     9    7   12 1  
    10    8    9 1  
    11    8   10 1  
    12    9   24 1  
    13   10   11 1  
    14   10   12 1  
    15   12   13 1  
    16   13   14 1  
    17   13   23 1  
    18   14   15 2  
    19   15   16 1  
    20   16   17 1  
    21   16   23 2  
    22   17   18 2  
    23   17   19 am 
    24   19   20 am 
    25   20   21 1  
    26   20   22 2  
    27   22   23 1  
    28   24   25 ar 
    29   24   26 ar 
    30   24   27 1  
    31   27   28 1  
    32   28   29 1  
    33   29   30 1  
    34   29   31 1  
    35   30   35 1  
    36   31   32 1  
    37   31   33 1  
    38   33   34 1  
    39   33   35 1  
    40   35   36 1  
    41   36   37 1  
    42   36   46 1  
    43   37   38 2  
    44   38   39 1  
    45   39   40 1  
    46   39   46 2  
    47   40   41 2  
    48   40   42 am 
    49   42   43 am 
    50   43   44 1  
    51   43   45 2  
    52   45   46 1  
    53    5   47 1  
    54    5   48 1  
    55    6   49 1  
    56    8   50 1  
    57   10   51 1  
    58   11   52 1  
    59   12   53 1  
    60   14   54 1  
    61   19   55 1  
    62   21   56 1  
    63   21   57 1  
    64   28   58 1  
    65   28   59 1  
    66   29   60 1  
    67   31   61 1  
    68   33   62 1  
    69   34   63 1  
    70   35   64 1  
    71   37   65 1  
    72   42   66 1  
    73   44   67 1  
    74   44   68 1  
@<TRIPOS>SUBSTRUCTURE
     1 C2E         1

