### 
### Created by X-TOOL on Fri Nov 18 13:41:53 2016
### 

@<TRIPOS>MOLECULE
2bfr_ligand
   39    41     1     0     0
SMALL
GAST_HUCK


@<TRIPOS>ATOM
      1 PB         15.1820   76.9810   -7.6950 P.3       1 ADP         0.2069
      2 O1B        14.5970   75.6860   -7.2680 O.co2     1 ADP        -0.5891
      3 O2B        16.1960   76.8530   -8.8000 O.co2     1 ADP        -0.5891
      4 O3B        14.0590   78.0470   -8.0200 O.co2     1 ADP        -0.5891
      5 PA         16.2010   78.9400   -5.8420 P.3       1 ADP         0.3276
      6 O1A        17.0470   78.8450   -4.5930 O.co2     1 ADP        -0.5556
      7 O2A        16.7290   79.8770   -6.9030 O.co2     1 ADP        -0.5556
      8 O3A        16.0070   77.4940   -6.4250 O.3       1 ADP        -0.1548
      9 O5         14.7550   79.3080   -5.2870 O.3       1 ADP        -0.2436
     10 C5         14.0540   78.4510   -4.3280 C.3       1 ADP         0.1132
     11 C4         13.2980   79.2290   -3.2410 C.3       1 ADP         0.1189
     12 O4         14.1050   79.2530   -2.0290 O.3       1 ADP        -0.3364
     13 C3         12.9920   80.7250   -3.5440 C.3       1 ADP         0.1149
     14 O3         11.5850   80.9580   -3.3020 O.3       1 ADP        -0.3864
     15 C2         13.9690   81.4680   -2.6160 C.3       1 ADP         0.1385
     16 O2         13.4970   82.7600   -2.2000 O.3       1 ADP        -0.3836
     17 C1         14.0800   80.5270   -1.4200 C.3       1 ADP         0.2010
     18 N9         15.3480   80.7210   -0.6060 N.pl3     1 ADP        -0.1919
     19 C8         16.5010   81.3570   -0.9680 C.2       1 ADP         0.1123
     20 N7         17.4390   81.3520    0.0010 N.2       1 ADP        -0.2958
     21 C5         16.8450   80.6760    1.0220 C.ar      1 ADP         0.1045
     22 C6         17.3250   80.3260    2.3570 C.ar      1 ADP         0.1298
     23 N6         18.4810   80.6110    2.8500 N.pl3     1 ADP        -0.3152
     24 N1         16.4030   79.6180    3.1220 N.ar      1 ADP        -0.2698
     25 C2         15.1320   79.2690    2.6670 C.ar      1 ADP         0.0533
     26 N3         14.6760   79.5830    1.4460 N.ar      1 ADP        -0.2714
     27 C4         15.5500   80.2760    0.6680 C.ar      1 ADP         0.1613
     28 H1         14.7937   77.8006   -3.8383 H         1 ADP         0.0648
     29 H2         13.3302   77.8329   -4.8793 H         1 ADP         0.0648
     30 H3         12.3478   78.7076   -3.0534 H         1 ADP         0.0651
     31 H4         13.2146   80.9743   -4.5920 H         1 ADP         0.0648
     32 H5         11.3802   81.8680   -3.4823 H         1 ADP         0.2100
     33 H6         14.9442   81.5906   -3.1099 H         1 ADP         0.0676
     34 H7         12.6779   82.6602   -1.7292 H         1 ADP         0.2101
     35 H8         13.2069   80.6389   -0.7604 H         1 ADP         0.0996
     36 H9         16.6483   81.8217   -1.9418 H         1 ADP         0.1349
     37 H10        18.7197   80.3154    3.8073 H         1 ADP         0.1820
     38 H11        19.1663   81.1344    2.2867 H         1 ADP         0.1820
     39 H12        14.4801   78.7162    3.3338 H         1 ADP         0.0996
@<TRIPOS>BOND
     1    1    2 ar 
     2    1    3 ar 
     3    1    4 ar 
     4    8    1 1  
     5    5    6 ar 
     6    5    7 ar 
     7    5    8 1  
     8    5    9 1  
     9    9   10 1  
    10   10   11 1  
    11   11   12 1  
    12   11   13 1  
    13   12   17 1  
    14   13   14 1  
    15   13   15 1  
    16   15   16 1  
    17   15   17 1  
    18   17   18 1  
    19   18   19 1  
    20   18   27 1  
    21   19   20 2  
    22   20   21 1  
    23   21   22 ar 
    24   21   27 ar 
    25   22   23 1  
    26   22   24 ar 
    27   24   25 ar 
    28   25   26 ar 
    29   26   27 ar 
    30   10   28 1  
    31   10   29 1  
    32   11   30 1  
    33   13   31 1  
    34   14   32 1  
    35   15   33 1  
    36   16   34 1  
    37   17   35 1  
    38   19   36 1  
    39   23   37 1  
    40   23   38 1  
    41   25   39 1  
@<TRIPOS>SUBSTRUCTURE
     1 ADP         1

