### 
### Created by X-TOOL on Fri Nov 18 13:44:33 2016
### 

@<TRIPOS>MOLECULE
1szd_ligand
   57    60     1     0     0
SMALL
GAST_HUCK


@<TRIPOS>ATOM
      1 N1        -13.1970   32.4900  -34.3580 N.ar      1 APR        -0.2698
      2 C2        -12.1780   31.5510  -34.6210 C.ar      1 APR         0.0533
      3 N3        -11.8390   31.0940  -35.9550 N.ar      1 APR        -0.2714
      4 C4        -12.6420   31.6880  -36.9760 C.ar      1 APR         0.1613
      5 C5        -13.6850   32.6270  -36.8310 C.ar      1 APR         0.1045
      6 C6        -13.9700   33.0450  -35.4480 C.ar      1 APR         0.1298
      7 N6        -14.9910   33.9960  -35.1210 N.pl3     1 APR        -0.3152
      8 N7        -14.2160   32.9540  -38.0560 N.2       1 APR        -0.2958
      9 C8        -13.5180   32.2390  -38.9410 C.2       1 APR         0.1123
     10 N9        -12.5480   31.4570  -38.3260 N.pl3     1 APR        -0.1919
     11 C1        -11.5530   30.5400  -38.8690 C.3       1 APR         0.2010
     12 C2        -11.8920   29.7570  -40.0570 C.3       1 APR         0.1385
     13 O2        -12.2890   28.4150  -39.7130 O.3       1 APR        -0.3836
     14 C3        -10.7140   29.7710  -40.9290 C.3       1 APR         0.1149
     15 O3         -9.8220   28.6440  -40.7920 O.3       1 APR        -0.3864
     16 O4        -10.5540   31.4300  -39.2840 O.3       1 APR        -0.3364
     17 C4         -9.9790   31.0440  -40.5380 C.3       1 APR         0.1189
     18 C5        -10.0860   32.2430  -41.5020 C.3       1 APR         0.1128
     19 O5         -9.5480   31.8810  -42.7890 O.3       1 APR        -0.2476
     20 PA         -9.4880   32.8610  -43.9620 P.3       1 APR         0.2972
     21 O1A       -10.7950   33.4870  -44.1880 O.co2     1 APR        -0.6127
     22 O2A        -8.9410   32.1710  -45.1380 O.co2     1 APR        -0.6127
     23 O3A        -8.4410   33.9480  -43.7350 O.3       1 APR        -0.1319
     24 PB         -7.0180   34.1300  -43.4470 P.3       1 APR         0.2972
     25 O1B        -6.3480   32.8550  -43.2620 O.co2     1 APR        -0.6127
     26 O2B        -6.5540   34.8920  -42.3940 O.co2     1 APR        -0.6127
     27 RO5        -6.7540   34.4970  -44.8790 O.3       1 APR        -0.2476
     28 RC5        -6.9450   35.5660  -45.6440 C.3       1 APR         0.1128
     29 RO4        -7.9050   36.6760  -47.1900 O.3       1 APR        -0.3403
     30 RO1        -6.5320   38.4170  -47.7010 O.3       1 APR        -0.3649
     31 RC1        -7.2320   37.3180  -48.2500 C.3       1 APR         0.1854
     32 RO2        -6.9930   36.0840  -49.8250 O.3       1 APR        -0.3841
     33 RC2        -6.1870   36.5590  -48.7430 C.3       1 APR         0.1339
     34 RO3        -6.3030   34.0130  -48.8210 O.3       1 APR        -0.3864
     35 RC3        -6.1700   35.2420  -48.1280 C.3       1 APR         0.1144
     36 RC4        -7.1590   35.3780  -47.0310 C.3       1 APR         0.1184
     37 H1        -11.6194   31.1502  -33.7829 H         1 APR         0.0996
     38 H2        -15.5634   34.4144  -35.8681 H         1 APR         0.1820
     39 H3        -15.1524   34.2611  -34.1389 H         1 APR         0.1820
     40 H4        -13.6884   32.2654  -40.0163 H         1 APR         0.1349
     41 H5        -11.2075   29.8577  -38.0783 H         1 APR         0.0996
     42 H6        -12.7313   30.2396  -40.5791 H         1 APR         0.0676
     43 H7        -12.5015   27.9359  -40.5053 H         1 APR         0.2101
     44 H8        -11.0420   29.8230  -41.9777 H         1 APR         0.0648
     45 H9        -10.2925   27.8431  -40.9911 H         1 APR         0.2100
     46 H10        -8.9124   30.8060  -40.4126 H         1 APR         0.0651
     47 H11        -9.5180   33.0921  -41.0940 H         1 APR         0.0648
     48 H12       -11.1423   32.5286  -41.6145 H         1 APR         0.0648
     49 H13        -6.0556   36.2044  -45.5369 H         1 APR         0.0648
     50 H14        -7.8253   36.0942  -45.2489 H         1 APR         0.0648
     51 H15        -7.1492   39.0106  -47.2896 H         1 APR         0.2126
     52 H16        -7.9387   37.6092  -49.0411 H         1 APR         0.0935
     53 H17        -6.4801   35.4949  -50.3656 H         1 APR         0.2101
     54 H18        -5.2217   37.0608  -48.9052 H         1 APR         0.0671
     55 H19        -7.1388   33.9940  -49.2721 H         1 APR         0.2100
     56 H20        -5.1746   35.1609  -47.6669 H         1 APR         0.0648
     57 H21        -7.8226   34.5082  -47.1455 H         1 APR         0.0651
@<TRIPOS>BOND
     1    2    1 ar 
     2    6    1 ar 
     3    3    2 ar 
     4    4    3 ar 
     5    4    5 ar 
     6   10    4 1  
     7    5    6 ar 
     8    8    5 1  
     9    6    7 1  
    10    9    8 2  
    11   10    9 1  
    12   11   10 1  
    13   11   12 1  
    14   16   11 1  
    15   12   13 1  
    16   14   12 1  
    17   14   15 1  
    18   17   14 1  
    19   17   16 1  
    20   18   17 1  
    21   19   18 1  
    22   20   19 1  
    23   20   21 ar 
    24   20   22 ar 
    25   23   20 1  
    26   24   23 1  
    27   24   25 ar 
    28   24   26 ar 
    29   27   24 1  
    30   28   27 1  
    31   36   28 1  
    32   29   31 1  
    33   29   36 1  
    34   31   30 1  
    35   31   33 1  
    36   33   32 1  
    37   33   35 1  
    38   35   34 1  
    39   35   36 1  
    40    2   37 1  
    41    7   38 1  
    42    7   39 1  
    43    9   40 1  
    44   11   41 1  
    45   12   42 1  
    46   13   43 1  
    47   14   44 1  
    48   15   45 1  
    49   17   46 1  
    50   18   47 1  
    51   18   48 1  
    52   28   49 1  
    53   28   50 1  
    54   30   51 1  
    55   31   52 1  
    56   32   53 1  
    57   33   54 1  
    58   34   55 1  
    59   35   56 1  
    60   36   57 1  
@<TRIPOS>SUBSTRUCTURE
     1 APR         1

