2o4s_ligand

Created by X-TOOL on Fri Nov 18 14:24:18 2016
 94 97  0  0  0  0  0  0  0  0999 V2000
    5.3550  -16.4940  -17.3880  C 0  0  0  3  0  4
    7.1810  -17.9060  -16.3700  C 0  0  0  3  0  4
    8.1370  -16.9120  -16.8990  N 0  0  0  1  0  3
    7.7660  -15.8860  -17.7000  C 0  0  0  1  0  3
    6.4440  -15.7130  -17.9600  N 0  0  0  2  0  3
   15.0010  -20.6720  -15.2640  C 0  0  0  1  0  3
   16.2970  -21.1360  -15.1910  C 0  0  0  2  0  3
   16.6200  -22.2150  -14.3630  C 0  0  0  2  0  3
   15.6090  -22.8130  -13.6190  C 0  0  0  2  0  3
   14.2900  -22.3490  -13.6890  C 0  0  0  2  0  3
   13.9770  -21.2640  -14.5180  C 0  0  0  2  0  3
    8.5990  -15.1510  -18.2070  O 0  0  0  1  0  1
    9.5600  -17.1760  -16.5720  C 0  0  0  2  0  4
   10.0350  -18.4130  -17.2760  C 0  0  0  1  0  3
   10.7510  -18.1740  -18.3790  N 0  0  0  2  0  3
   11.3260  -19.2370  -19.2530  C 0  0  0  2  0  4
    9.8060  -17.2710  -15.0490  C 0  0  0  2  0  4
   11.2730  -17.5360  -14.7110  C 0  0  0  4  0  4
    9.2700  -16.0380  -14.2960  C 0  0  0  4  0  4
    9.7790  -19.5400  -16.8360  O 0  0  0  1  0  1
    7.1320  -20.7430  -20.4720  C 0  0  0  2  0  3
    6.3530  -19.5860  -20.4440  C 0  0  0  2  0  3
    6.9430  -18.3120  -20.5200  C 0  0  0  2  0  3
    8.3410  -18.1720  -20.5720  C 0  0  0  2  0  3
    9.1270  -19.3190  -20.5630  C 0  0  0  1  0  3
    8.5450  -20.6020  -20.5190  C 0  0  0  2  0  3
   10.6170  -19.1520  -20.6220  C 0  0  0  3  0  4
   12.8070  -18.9690  -19.5040  C 0  0  0  3  0  4
   13.6990  -18.7180  -18.2880  C 0  0  0  2  0  4
   13.8770  -19.9230  -17.3830  C 0  0  0  2  0  4
   14.5820  -20.9910  -18.1200  N 0  0  0  2  0  3
   13.9330  -22.1590  -18.4080  C 0  0  0  1  0  3
   14.7300  -23.2240  -19.1200  C 0  0  0  3  0  4
   16.0560  -22.7710  -19.4160  O 0  0  0  1  0  2
   16.9460  -23.7580  -19.7400  C 0  0  0  1  0  3
   14.9960  -18.2990  -18.7190  O 0  0  0  2  0  2
   14.7380  -19.5010  -16.1910  C 0  0  0  3  0  4
   12.7680  -22.4620  -18.1530  O 0  0  0  1  0  1
   16.8490  -24.3830  -20.9930  C 0  0  0  1  0  3
   17.7390  -25.4060  -21.2980  C 0  0  0  2  0  3
   18.7080  -25.8360  -20.3880  C 0  0  0  2  0  3
   18.7830  -25.2350  -19.1400  C 0  0  0  2  0  3
   17.9080  -24.1810  -18.8110  C 0  0  0  1  0  3
   17.9730  -23.5370  -17.4460  C 0  0  0  4  0  4
   15.8330  -23.9850  -22.0580  C 0  0  0  4  0  4
    5.8420  -17.2030  -16.1170  C 0  0  0  3  0  4
    5.0188  -17.2437  -18.1193  H 0  0  0  1  0  1
    4.5181  -15.8259  -17.1366  H 0  0  0  1  0  1
    7.5642  -18.3253  -15.4280  H 0  0  0  1  0  1
    7.0431  -18.7152  -17.1023  H 0  0  0  1  0  1
    6.1964  -14.9858  -18.6002  H 0  0  0  1  0  1
   17.0722  -20.6602  -15.7806  H 0  0  0  1  0  1
   17.6394  -22.5786  -14.3021  H 0  0  0  1  0  1
   15.8459  -23.6518  -12.9745  H 0  0  0  1  0  1
   13.5134  -22.8278  -13.1036  H 0  0  0  1  0  1
   12.9612  -20.8907  -14.5800  H 0  0  0  1  0  1
   10.1501  -16.3273  -16.9481  H 0  0  0  1  0  1
   10.9116  -17.2207  -18.6348  H 0  0  0  1  0  1
   11.1850  -20.2273  -18.7954  H 0  0  0  1  0  1
    9.2339  -18.1391  -14.6897  H 0  0  0  1  0  1
   11.3929  -17.5944  -13.6191  H 0  0  0  1  0  1
   11.8936  -16.7176  -15.1048  H 0  0  0  1  0  1
   11.5881  -18.4867  -15.1658  H 0  0  0  1  0  1
    8.2148  -15.8764  -14.5615  H 0  0  0  1  0  1
    9.8586  -15.1522  -14.5770  H 0  0  0  1  0  1
    9.3539  -16.2052  -13.2120  H 0  0  0  1  0  1
    6.6712  -21.7241  -20.4583  H 0  0  0  1  0  1
    5.2754  -19.6706  -20.3623  H 0  0  0  1  0  1
    6.3140  -17.4293  -20.5387  H 0  0  0  1  0  1
    8.7970  -17.1896  -20.6182  H 0  0  0  1  0  1
    9.1767  -21.4829  -20.5210  H 0  0  0  1  0  1
   11.0256  -19.9413  -21.2701  H 0  0  0  1  0  1
   10.8351  -18.1674  -21.0612  H 0  0  0  1  0  1
   12.8755  -18.0817  -20.1506  H 0  0  0  1  0  1
   13.2136  -19.8422  -20.0352  H 0  0  0  1  0  1
   13.2400  -17.9119  -17.6969  H 0  0  0  1  0  1
   12.8977  -20.2858  -17.0375  H 0  0  0  1  0  1
   15.5309  -20.8602  -18.4074  H 0  0  0  1  0  1
   14.2217  -23.4833  -20.0604  H 0  0  0  1  0  1
   14.7908  -24.1152  -18.4782  H 0  0  0  1  0  1
   14.9105  -17.5436  -19.2886  H 0  0  0  1  0  1
   15.6985  -19.1135  -16.5613  H 0  0  0  1  0  1
   14.2149  -18.7111  -15.6321  H 0  0  0  1  0  1
   17.6797  -25.8837  -22.2693  H 0  0  0  1  0  1
   19.3945  -26.6315  -20.6546  H 0  0  0  1  0  1
   19.5153  -25.5766  -18.4175  H 0  0  0  1  0  1
   17.2174  -22.7403  -17.3801  H 0  0  0  1  0  1
   18.9735  -23.1071  -17.2906  H 0  0  0  1  0  1
   17.7753  -24.2946  -16.6733  H 0  0  0  1  0  1
   15.2018  -23.1692  -21.6759  H 0  0  0  1  0  1
   15.2022  -24.8516  -22.3051  H 0  0  0  1  0  1
   16.3619  -23.6470  -22.9613  H 0  0  0  1  0  1
    5.0943  -17.9493  -15.8104  H 0  0  0  1  0  1
    5.9694  -16.4607  -15.3153  H 0  0  0  1  0  1
  5  1  1  0  0  1
 46  1  1  0  0  1
  3  2  1  0  0  1
  2 46  1  0  0  1
  3  4  1  0  0  1
 13  3  1  0  0  2
  4  5  1  0  0  1
  4 12  2  0  0  2
  6  7  4  0  0  1
  6 11  4  0  0  1
 37  6  1  0  0  2
  7  8  4  0  0  1
  8  9  4  0  0  1
 10  9  4  0  0  1
 11 10  4  0  0  1
 14 13  1  0  0  2
 13 17  1  0  0  2
 15 14  1  0  0  2
 14 20  2  0  0  2
 16 15  1  0  0  2
 16 27  1  0  0  2
 28 16  1  0  0  2
 17 18  1  0  0  2
 17 19  1  0  0  2
 21 22  4  0  0  1
 26 21  4  0  0  1
 23 22  4  0  0  1
 24 23  4  0  0  1
 25 24  4  0  0  1
 25 26  4  0  0  1
 27 25  1  0  0  2
 29 28  1  0  0  2
 30 29  1  0  0  2
 29 36  1  0  0  2
 30 31  1  0  0  2
 30 37  1  0  0  2
 31 32  1  0  0  2
 32 33  1  0  0  2
 32 38  2  0  0  2
 33 34  1  0  0  2
 34 35  1  0  0  2
 35 39  4  0  0  1
 35 43  4  0  0  1
 39 40  4  0  0  1
 39 45  1  0  0  2
 40 41  4  0  0  1
 41 42  4  0  0  1
 42 43  4  0  0  1
 43 44  1  0  0  2
  1 47  1  0  0  2
  1 48  1  0  0  2
  2 49  1  0  0  2
  2 50  1  0  0  2
  5 51  1  0  0  2
  7 52  1  0  0  2
  8 53  1  0  0  2
  9 54  1  0  0  2
 10 55  1  0  0  2
 11 56  1  0  0  2
 13 57  1  0  0  2
 15 58  1  0  0  2
 16 59  1  0  0  2
 17 60  1  0  0  2
 18 61  1  0  0  2
 18 62  1  0  0  2
 18 63  1  0  0  2
 19 64  1  0  0  2
 19 65  1  0  0  2
 19 66  1  0  0  2
 21 67  1  0  0  2
 22 68  1  0  0  2
 23 69  1  0  0  2
 24 70  1  0  0  2
 26 71  1  0  0  2
 27 72  1  0  0  2
 27 73  1  0  0  2
 28 74  1  0  0  2
 28 75  1  0  0  2
 29 76  1  0  0  2
 30 77  1  0  0  2
 31 78  1  0  0  2
 33 79  1  0  0  2
 33 80  1  0  0  2
 36 81  1  0  0  2
 37 82  1  0  0  2
 37 83  1  0  0  2
 40 84  1  0  0  2
 41 85  1  0  0  2
 42 86  1  0  0  2
 44 87  1  0  0  2
 44 88  1  0  0  2
 44 89  1  0  0  2
 45 90  1  0  0  2
 45 91  1  0  0  2
 45 92  1  0  0  2
 46 93  1  0  0  2
 46 94  1  0  0  2
M  END
> <MOLECULAR_FORMULA>
C37H48N4O5

> <MOLECULAR_WEIGHT>
628.4

> <NUM_HB_ATOMS>
8  

> <NUM_ROTOR>
15 

> <XLOGP2>
4.85 

$$$$
