### 
### Created by X-TOOL on Fri Nov 18 17:34:02 2016
### 

@<TRIPOS>MOLECULE
4kax_ligand
   45    47     1     0     0
SMALL
GAST_HUCK


@<TRIPOS>ATOM
      1 PG          0.4670    9.1120   50.8270 P.3       1 GTP         0.1879
      2 O1G         0.8070    7.9570   49.9310 O.co2     1 GTP        -0.6091
      3 O2G         0.0920   10.3060   49.9640 O.co2     1 GTP        -0.6091
      4 O3G         1.6200    9.4840   51.7140 O.co2     1 GTP        -0.6091
      5 O3B        -0.8430    8.7770   51.7590 O.3       1 GTP        -0.1546
      6 PB         -0.8760    7.5390   52.8080 P.3       1 GTP         0.3553
      7 O1B        -1.4030    6.3140   52.1480 O.co2     1 GTP        -0.5652
      8 O2B         0.4590    7.3590   53.4750 O.co2     1 GTP        -0.5652
      9 O3A        -1.9550    7.9970   53.9230 O.3       1 GTP        -0.1171
     10 PA         -1.6510    8.4750   55.4220 P.3       1 GTP         0.3266
     11 O1A        -0.8110    9.7170   55.4740 O.co2     1 GTP        -0.5692
     12 O2A        -1.0990    7.3630   56.2840 O.co2     1 GTP        -0.5692
     13 O5'        -3.1630    8.8130   55.8970 O.3       1 GTP        -0.2441
     14 C5'        -3.8640    9.8940   55.3060 C.3       1 GTP         0.1131
     15 C4'        -4.9000   10.4380   56.2920 C.3       1 GTP         0.1190
     16 O4'        -5.8030    9.4010   56.6350 O.3       1 GTP        -0.3347
     17 C3'        -4.2340   10.8910   57.5810 C.3       1 GTP         0.1151
     18 O3'        -4.8450   12.0650   58.0620 O.3       1 GTP        -0.3864
     19 C2'        -4.4880    9.7410   58.5330 C.3       1 GTP         0.1407
     20 O2'        -4.5500   10.1440   59.8750 O.3       1 GTP        -0.3835
     21 C1'        -5.8240    9.2300   58.0400 C.3       1 GTP         0.2218
     22 N9         -6.0490    7.8230   58.4050 N.pl3     1 GTP        -0.0954
     23 C8         -5.1870    6.7620   58.2970 C.2       1 GTP         0.1855
     24 N7         -5.8100    5.6540   58.7490 N.2       1 GTP        -0.1929
     25 C5         -7.0670    5.9890   59.1370 C.2       1 GTP         0.2558
     26 C6         -8.1320    5.2640   59.6720 C.2       1 GTP         0.2628
     27 O6         -8.0410    4.0550   59.8690 O.2       1 GTP        -0.3594
     28 N1         -9.3180    5.9140   59.9750 N.am      1 GTP        -0.2478
     29 C2         -9.4430    7.2670   59.7470 C.cat     1 GTP         0.2041
     30 N2        -10.5820    7.8920   60.0430 N.pl3     1 GTP        -0.3327
     31 N3         -8.3850    7.9830   59.2220 N.pl3     1 GTP        -0.1901
     32 C4         -7.2210    7.3540   58.9220 C.2       1 GTP         0.3268
     33 H1         -4.3736    9.5453   54.3957 H         1 GTP         0.0648
     34 H2         -3.1531   10.6919   55.0454 H         1 GTP         0.0648
     35 H3         -5.4401   11.2788   55.8323 H         1 GTP         0.0651
     36 H4         -3.1568   11.0603   57.4363 H         1 GTP         0.0648
     37 H5         -4.4188   12.3356   58.8667 H         1 GTP         0.2100
     38 H6         -3.7091    8.9711   58.4305 H         1 GTP         0.0677
     39 H7         -3.7259   10.5471   60.1219 H         1 GTP         0.2101
     40 H8         -6.6327    9.8354   58.4752 H         1 GTP         0.1021
     41 H9         -4.1697    6.8064   57.9109 H         1 GTP         0.1823
     42 H10       -10.0845    5.3999   60.3599 H         1 GTP         0.1819
     43 H11       -10.6739    8.9035   59.8720 H         1 GTP         0.1774
     44 H12       -11.3705    7.3636   60.4428 H         1 GTP         0.1774
     45 H13        -8.4798    8.9954   59.0581 H         1 GTP         0.2519
@<TRIPOS>BOND
     1    1    2 ar 
     2    1    3 ar 
     3    1    4 ar 
     4    1    5 1  
     5    5    6 1  
     6    6    7 ar 
     7    6    8 ar 
     8    6    9 1  
     9    9   10 1  
    10   10   11 ar 
    11   10   12 ar 
    12   10   13 1  
    13   13   14 1  
    14   14   15 1  
    15   15   16 1  
    16   15   17 1  
    17   16   21 1  
    18   17   18 1  
    19   17   19 1  
    20   19   20 1  
    21   19   21 1  
    22   21   22 1  
    23   22   23 1  
    24   22   32 1  
    25   23   24 2  
    26   24   25 1  
    27   25   26 1  
    28   25   32 2  
    29   26   27 2  
    30   26   28 am 
    31   28   29 ar 
    32   29   30 ar 
    33   29   31 ar 
    34   31   32 1  
    35   14   33 1  
    36   14   34 1  
    37   15   35 1  
    38   17   36 1  
    39   18   37 1  
    40   19   38 1  
    41   20   39 1  
    42   21   40 1  
    43   23   41 1  
    44   28   42 1  
    45   30   43 1  
    46   30   44 1  
    47   31   45 1  
@<TRIPOS>SUBSTRUCTURE
     1 GTP         1

