### 
### Created by X-TOOL on Fri Nov 18 15:59:31 2016
### 

@<TRIPOS>MOLECULE
3n1c_ligand
   27    27     1     0     0
SMALL
GAST_HUCK


@<TRIPOS>ATOM
      1 O1         37.5560  -26.3590   38.6480 O.3       1 F6P        -0.3896
      2 C1         37.6030  -25.4960   39.7420 C.3       1 F6P         0.1006
      3 C2         39.0320  -25.5600   40.3670 C.3       1 F6P         0.2205
      4 O2         40.0070  -26.5460   39.9590 O.3       1 F6P        -0.3608
      5 C3         39.4510  -24.5020   41.3980 C.3       1 F6P         0.1392
      6 O3         39.2660  -24.8110   42.7460 O.3       1 F6P        -0.3837
      7 C4         40.5570  -23.6490   40.8960 C.3       1 F6P         0.1148
      8 O4         41.1300  -22.5640   41.5750 O.3       1 F6P        -0.3864
      9 C5         40.5330  -23.8030   39.3950 C.3       1 F6P         0.1181
     10 O5         39.4590  -24.7790   39.1580 O.3       1 F6P        -0.3361
     11 C6         41.8790  -24.2870   38.8310 C.3       1 F6P         0.1071
     12 O6         41.7710  -24.3240   37.4300 O.3       1 F6P        -0.2734
     13 P          42.9090  -25.0560   36.4780 P.3       1 F6P         0.2008
     14 O1P        43.0780  -26.6500   36.8770 O.co2     1 F6P        -0.5537
     15 O2P        44.3740  -24.3300   36.6540 O.co2     1 F6P        -0.5537
     16 O3P        42.4730  -24.9830   35.0890 O.co2     1 F6P        -0.5537
     17 H1         37.7438  -27.2445   38.9363 H         1 F6P         0.2096
     18 H2         36.8576  -25.8048   40.4897 H         1 F6P         0.0612
     19 H3         37.3884  -24.4686   39.4128 H         1 F6P         0.0612
     20 H4         39.7867  -26.8680   39.0928 H         1 F6P         0.2129
     21 H5         38.6217  -23.7873   41.2911 H         1 F6P         0.0675
     22 H6         39.5611  -24.0828   43.2800 H         1 F6P         0.2101
     23 H7         41.3897  -24.3345   41.1122 H         1 F6P         0.0648
     24 H8         41.4962  -22.8648   42.3984 H         1 F6P         0.2100
     25 H9         40.2828  -22.8419   38.9221 H         1 F6P         0.0650
     26 H10        42.1056  -25.2925   39.2152 H         1 F6P         0.0639
     27 H11        42.6795  -23.5927   39.1261 H         1 F6P         0.0639
@<TRIPOS>BOND
     1    1    2 1  
     2    2    3 1  
     3    3    4 1  
     4    3    5 1  
     5    3   10 1  
     6    5    6 1  
     7    5    7 1  
     8    7    8 1  
     9    7    9 1  
    10    9   10 1  
    11    9   11 1  
    12   11   12 1  
    13   12   13 1  
    14   13   14 ar 
    15   13   15 ar 
    16   13   16 ar 
    17    1   17 1  
    18    2   18 1  
    19    2   19 1  
    20    4   20 1  
    21    5   21 1  
    22    6   22 1  
    23    7   23 1  
    24    8   24 1  
    25    9   25 1  
    26   11   26 1  
    27   11   27 1  
@<TRIPOS>SUBSTRUCTURE
     1 F6P         1

