### 
### Created by X-TOOL on Fri Nov 18 14:33:22 2016
### 

@<TRIPOS>MOLECULE
1zs0_ligand
   46    47     1     0     0
SMALL
GAST_HUCK


@<TRIPOS>ATOM
      1 C14         9.3810   20.2040   12.2520 C.ar      1 EIN        -0.0279
      2 C15         9.8320   18.8310   12.5710 C.ar      1 EIN        -0.0616
      3 C16         9.1750   17.6940   11.9930 C.ar      1 EIN        -0.0312
      4 C17         8.0190   17.8930   11.0560 C.ar      1 EIN         0.0926
      5 C1          7.5750   19.2460   10.7490 C.ar      1 EIN        -0.0312
      6 C2          8.2470   20.3860   11.3380 C.ar      1 EIN        -0.0616
      7 O1          7.3090   16.7590   10.4310 O.3       1 EIN        -0.3200
      8 C3          7.9010   15.4780   10.7120 C.3       1 EIN         0.0599
      9 C4         10.0730   21.3840   12.8490 C.ar      1 EIN        -0.0246
     10 C5         11.5340   21.3730   13.0190 C.ar      1 EIN        -0.0548
     11 C6         12.2160   22.4970   13.5860 C.ar      1 EIN        -0.0363
     12 C7         11.4830   23.6710   13.9950 C.ar      1 EIN         0.1067
     13 C8         10.0240   23.7240   13.8420 C.ar      1 EIN        -0.0363
     14 C9          9.3220   22.5910   13.2700 C.ar      1 EIN        -0.0548
     15 S1         12.3610   25.0310   14.6790 S.o2      1 EIN         0.0690
     16 O2         11.7340   26.3390   14.2180 O.2       1 EIN        -0.1504
     17 O3         13.8480   24.9630   14.2270 O.2       1 EIN        -0.1504
     18 N1         12.2630   24.9070   16.3990 N.am      1 EIN        -0.2283
     19 C10        11.2240   25.4890   17.2430 C.3       1 EIN         0.1104
     20 C11        11.8600   26.2510   18.4860 C.3       1 EIN        -0.0116
     21 C12        10.8970   27.2370   19.2020 C.3       1 EIN        -0.0596
     22 C13        12.9090   27.2370   18.0080 C.3       1 EIN        -0.0596
     23 P1         10.1710   24.1750   17.8760 P.3       1 EIN         0.0804
     24 O4          8.5150   24.5160   17.7600 O.co2     1 EIN        -0.5610
     25 O5         10.3310   23.7220   19.5260 O.co2     1 EIN        -0.5610
     26 O6         10.2490   22.7860   17.0030 O.co2     1 EIN        -0.5610
     27 H1         10.6661   18.6831   13.2473 H         1 EIN         0.0601
     28 H2          9.5130   16.6923   12.2326 H         1 EIN         0.0548
     29 H3          6.7384   19.4003   10.0771 H         1 EIN         0.0548
     30 H4          7.9076   21.3877   11.1004 H         1 EIN         0.0601
     31 H5          7.3190   14.6881   10.2147 H         1 EIN         0.0579
     32 H6          7.9013   15.3045   11.7982 H         1 EIN         0.0579
     33 H7          8.9353   15.4620   10.3378 H         1 EIN         0.0579
     34 H8         12.1018   20.5025   12.7110 H         1 EIN         0.0609
     35 H9         13.2925   22.4659   13.7092 H         1 EIN         0.0633
     36 H10         9.4746   24.6046   14.1546 H         1 EIN         0.0633
     37 H11         8.2453   22.6268   13.1500 H         1 EIN         0.0609
     38 H12        12.9843   24.3889   16.8588 H         1 EIN         0.1692
     39 H13        10.6251   26.1937   16.6475 H         1 EIN         0.0706
     40 H14        12.2718   25.5134   19.1905 H         1 EIN         0.0328
     41 H15        11.4203   27.7146   20.0434 H         1 EIN         0.0233
     42 H16        10.0224   26.6866   19.5791 H         1 EIN         0.0233
     43 H17        10.5663   28.0081   18.4907 H         1 EIN         0.0233
     44 H18        13.6968   26.6979   17.4615 H         1 EIN         0.0233
     45 H19        13.3502   27.7517   18.8743 H         1 EIN         0.0233
     46 H20        12.4407   27.9763   17.3416 H         1 EIN         0.0233
@<TRIPOS>BOND
     1    1    2 ar 
     2    1    6 ar 
     3    1    9 1  
     4    2    3 ar 
     5    3    4 ar 
     6    4    5 ar 
     7    4    7 1  
     8    5    6 ar 
     9    7    8 1  
    10    9   10 ar 
    11    9   14 ar 
    12   10   11 ar 
    13   11   12 ar 
    14   12   13 ar 
    15   12   15 1  
    16   13   14 ar 
    17   15   16 2  
    18   15   17 2  
    19   15   18 am 
    20   18   19 1  
    21   19   20 1  
    22   19   23 1  
    23   20   21 1  
    24   20   22 1  
    25   23   24 ar 
    26   23   25 ar 
    27   23   26 ar 
    28    2   27 1  
    29    3   28 1  
    30    5   29 1  
    31    6   30 1  
    32    8   31 1  
    33    8   32 1  
    34    8   33 1  
    35   10   34 1  
    36   11   35 1  
    37   13   36 1  
    38   14   37 1  
    39   18   38 1  
    40   19   39 1  
    41   20   40 1  
    42   21   41 1  
    43   21   42 1  
    44   21   43 1  
    45   22   44 1  
    46   22   45 1  
    47   22   46 1  
@<TRIPOS>SUBSTRUCTURE
     1 EIN         1

