### 
### Created by X-TOOL on Fri Nov 18 17:53:49 2016
### 

@<TRIPOS>MOLECULE
4umc_ligand
   14    13     1     0     0
SMALL
GAST_HUCK


@<TRIPOS>ATOM
      1 C1        -27.2070  -16.0320  -37.7930 C.2       1 PEQ         0.0682
      2 O1        -27.5550  -16.9140  -36.9720 O.co2     1 PEQ        -0.5661
      3 O2'       -28.0020  -15.2760  -38.4360 O.co2     1 PEQ        -0.5661
      4 C2        -25.6580  -15.9390  -38.0500 C.3       1 PEQ         0.1382
      5 C3        -25.2520  -14.9390  -39.1610 C.3       1 PEQ        -0.0221
      6 O2        -25.1500  -17.2820  -38.3500 O.3       1 PEQ        -0.2593
      7 P         -23.5420  -17.7070  -38.5790 P.3       1 PEQ         0.2036
      8 O1P       -23.4780  -19.3010  -38.5320 O.co2     1 PEQ        -0.5536
      9 O2P       -23.2500  -17.2990  -40.1350 O.co2     1 PEQ        -0.5536
     10 O3P       -22.6260  -17.1790  -37.5480 O.co2     1 PEQ        -0.5536
     11 H         -25.1883  -15.5940  -37.1171 H         1 PEQ         0.0817
     12 H         -24.1576  -14.9390  -39.2723 H         1 PEQ         0.0276
     13 H         -25.5927  -13.9294  -38.8880 H         1 PEQ         0.0276
     14 H         -25.7172  -15.2384  -40.1117 H         1 PEQ         0.0276
@<TRIPOS>BOND
     1    1    2 ar 
     2    1    3 ar 
     3    1    4 1  
     4    4    5 1  
     5    4    6 1  
     6    6    7 1  
     7    7    8 ar 
     8    7    9 ar 
     9    7   10 ar 
    10    4   11 1  
    11    5   12 1  
    12    5   13 1  
    13    5   14 1  
@<TRIPOS>SUBSTRUCTURE
     1 PEQ         1

