### 
### Created by X-TOOL on Fri Nov 18 16:08:16 2016
### 

@<TRIPOS>MOLECULE
3kyq_ligand
   61    60     1     0     0
SMALL
GAST_HUCK


@<TRIPOS>ATOM
      1 N           6.4720   12.0720   12.0750 N.4       1 DPV         0.2388
      2 P           5.4030   16.2620    9.7160 P.3       1 DPV         0.2553
      3 C1          4.5880   18.0670   11.5200 C.3       1 DPV         0.0837
      4 C2          3.4230   19.0630   11.4480 C.3       1 DPV        -0.0243
      5 C3          2.1620   18.4770   12.0920 C.3       1 DPV        -0.0506
      6 C4          5.7720   14.4290   11.6040 C.3       1 DPV         0.1234
      7 C5          6.8120   13.3220   11.3610 C.3       1 DPV        -0.0017
      8 C6          6.1250   12.3380   13.4790 C.3       1 DPV        -0.0417
      9 C7          7.6420   11.1810   12.0530 C.3       1 DPV        -0.0417
     10 C8          5.3520   11.3780   11.4120 C.3       1 DPV        -0.0417
     11 C15         1.3610   17.6590   11.0770 C.3       1 DPV        -0.0530
     12 C16         0.0200   17.2250   11.6560 C.3       1 DPV        -0.0531
     13 C17        -0.3500   15.8370   11.1460 C.3       1 DPV        -0.0531
     14 C18        -1.6090   15.3290   11.8440 C.3       1 DPV        -0.0531
     15 C19        -2.3170   14.2880   10.9730 C.3       1 DPV        -0.0531
     16 O1P         4.1290   15.4980    9.5240 O.co2     1 DPV        -0.6177
     17 C20        -3.5520   13.7460   11.6890 C.3       1 DPV        -0.0531
     18 C21        -4.1730   12.5920   10.9080 C.3       1 DPV        -0.0533
     19 C22        -5.3090   13.0920   10.0190 C.3       1 DPV        -0.0559
     20 C23        -5.4340   12.2180    8.7750 C.3       1 DPV        -0.0653
     21 O2P         6.3870   16.3420    8.5970 O.co2     1 DPV        -0.6177
     22 O3P         5.0430   17.7890   10.1760 O.3       1 DPV        -0.2541
     23 O4P         6.1960   15.6590   11.0050 O.3       1 DPV        -0.2488
     24 H1          4.2496   17.1351   11.9965 H         1 DPV         0.0620
     25 H2          5.4107   18.5012   12.1070 H         1 DPV         0.0620
     26 H3          3.2136   19.2967   10.3937 H         1 DPV         0.0291
     27 H4          3.7036   19.9845   11.9791 H         1 DPV         0.0291
     28 H5          1.5345   19.2985   12.4681 H         1 DPV         0.0266
     29 H6          2.4542   17.8259   12.9291 H         1 DPV         0.0266
     30 H7          5.6487   14.5779   12.6869 H         1 DPV         0.0674
     31 H8          4.8108   14.1250   11.1639 H         1 DPV         0.0674
     32 H9          6.8610   13.1122   10.2823 H         1 DPV         0.0841
     33 H10         7.7934   13.6746   11.7109 H         1 DPV         0.0841
     34 H11         5.8778   11.3911   13.9813 H         1 DPV         0.0778
     35 H12         5.2572   13.0126   13.5208 H         1 DPV         0.0778
     36 H13         6.9804   12.8092   13.9852 H         1 DPV         0.0778
     37 H14         7.9207   10.9675   11.0105 H         1 DPV         0.0778
     38 H15         7.3960   10.2400   12.5668 H         1 DPV         0.0778
     39 H16         8.4843   11.6691   12.5651 H         1 DPV         0.0778
     40 H17         4.4640   12.0272   11.4168 H         1 DPV         0.0778
     41 H18         5.1275   10.4459   11.9511 H         1 DPV         0.0778
     42 H19         5.6291   11.1434   10.3736 H         1 DPV         0.0778
     43 H20         1.9388   16.7648   10.8004 H         1 DPV         0.0265
     44 H21         1.1836   18.2725   10.1814 H         1 DPV         0.0265
     45 H22        -0.7563   17.9425   11.3518 H         1 DPV         0.0265
     46 H23         0.0885   17.2023   12.7536 H         1 DPV         0.0265
     47 H24         0.4802   15.1441   11.3475 H         1 DPV         0.0265
     48 H25        -0.5318   15.8861   10.0623 H         1 DPV         0.0265
     49 H26        -2.2896   16.1740   12.0247 H         1 DPV         0.0265
     50 H27        -1.3312   14.8700   12.8043 H         1 DPV         0.0265
     51 H28        -1.6253   13.4583   10.7653 H         1 DPV         0.0265
     52 H29        -2.6234   14.7559   10.0258 H         1 DPV         0.0265
     53 H30        -4.2930   14.5527   11.7891 H         1 DPV         0.0265
     54 H31        -3.2612   13.3891   12.6880 H         1 DPV         0.0265
     55 H32        -4.5687   11.8486   11.6156 H         1 DPV         0.0265
     56 H33        -3.4010   12.1249   10.2789 H         1 DPV         0.0265
     57 H34        -5.1018   14.1285    9.7145 H         1 DPV         0.0263
     58 H35        -6.2528   13.0572   10.5828 H         1 DPV         0.0263
     59 H36        -6.2557   12.5910    8.1459 H         1 DPV         0.0230
     60 H37        -5.6438   11.1808    9.0752 H         1 DPV         0.0230
     61 H38        -4.4927   12.2521    8.2068 H         1 DPV         0.0230
@<TRIPOS>BOND
     1    7    1 1  
     2    1    8 1  
     3    1    9 1  
     4    1   10 1  
     5    2   16 ar 
     6    2   21 ar 
     7    2   22 1  
     8   23    2 1  
     9    3    4 1  
    10   22    3 1  
    11    4    5 1  
    12    5   11 1  
    13    6    7 1  
    14    6   23 1  
    15   11   12 1  
    16   12   13 1  
    17   13   14 1  
    18   14   15 1  
    19   15   17 1  
    20   17   18 1  
    21   18   19 1  
    22   19   20 1  
    23    3   24 1  
    24    3   25 1  
    25    4   26 1  
    26    4   27 1  
    27    5   28 1  
    28    5   29 1  
    29    6   30 1  
    30    6   31 1  
    31    7   32 1  
    32    7   33 1  
    33    8   34 1  
    34    8   35 1  
    35    8   36 1  
    36    9   37 1  
    37    9   38 1  
    38    9   39 1  
    39   10   40 1  
    40   10   41 1  
    41   10   42 1  
    42   11   43 1  
    43   11   44 1  
    44   12   45 1  
    45   12   46 1  
    46   13   47 1  
    47   13   48 1  
    48   14   49 1  
    49   14   50 1  
    50   15   51 1  
    51   15   52 1  
    52   17   53 1  
    53   17   54 1  
    54   18   55 1  
    55   18   56 1  
    56   19   57 1  
    57   19   58 1  
    58   20   59 1  
    59   20   60 1  
    60   20   61 1  
@<TRIPOS>SUBSTRUCTURE
     1 DPV         1

