### 
### Created by X-TOOL on Wed Dec 13 14:18:34 2017
### 

@<TRIPOS>MOLECULE
5f1x_ligand
   43    45     1     0     0
SMALL
GAST_HUCK


@<TRIPOS>ATOM
      1 PG         19.9070    1.4480    4.2260 P.3       1 ATP         0.1879
      2 O1G        20.9430    2.2740    3.5130 O.co2     1 ATP        -0.6091
      3 O2G        18.5870    2.1570    4.4700 O.co2     1 ATP        -0.6091
      4 O3G        20.5480    0.7910    5.4320 O.co2     1 ATP        -0.6091
      5 PB         20.6600   -0.6880    2.4740 P.3       1 ATP         0.3553
      6 O1B        20.6080   -0.6100    0.9490 O.co2     1 ATP        -0.5652
      7 O2B        22.0540   -0.5400    2.9900 O.co2     1 ATP        -0.5652
      8 O3B        19.5990    0.2500    3.2000 O.3       1 ATP        -0.1546
      9 PA         19.0540   -3.1630    2.3790 P.3       1 ATP         0.3266
     10 O1A        17.9790   -2.5030    1.5770 O.co2     1 ATP        -0.5692
     11 O2A        19.7040   -4.3650    1.7210 O.co2     1 ATP        -0.5692
     12 O3A        20.1310   -2.1270    3.0000 O.3       1 ATP        -0.1171
     13 O5'        18.3590   -3.6550    3.7150 O.3       1 ATP        -0.2441
     14 C5'        19.0430   -4.3280    4.7880 C.3       1 ATP         0.1131
     15 C4'        18.0030   -4.8240    5.7970 C.3       1 ATP         0.1189
     16 O4'        17.1270   -5.7650    5.1370 O.3       1 ATP        -0.3364
     17 C3'        18.6180   -5.5710    6.9760 C.3       1 ATP         0.1149
     18 O3'        17.9740   -5.1570    8.1560 O.3       1 ATP        -0.3864
     19 C2'        18.2800   -7.0370    6.6450 C.3       1 ATP         0.1385
     20 O2'        18.2770   -7.8240    7.8160 O.3       1 ATP        -0.3836
     21 C1'        16.9040   -6.8420    5.9880 C.3       1 ATP         0.2010
     22 N9         16.4070   -8.0540    5.2550 N.pl3     1 ATP        -0.1919
     23 C8         16.9600   -8.6580    4.1780 C.2       1 ATP         0.1123
     24 N7         16.2160   -9.7090    3.8510 N.2       1 ATP        -0.2958
     25 C5         15.1710   -9.7770    4.6760 C.ar      1 ATP         0.1045
     26 C6         14.0580  -10.6360    4.8340 C.ar      1 ATP         0.1298
     27 N6         13.9010  -11.7110    3.9640 N.pl3     1 ATP        -0.3152
     28 N1         13.1750  -10.4180    5.8090 N.ar      1 ATP        -0.2698
     29 C2         13.3200   -9.3960    6.6410 C.ar      1 ATP         0.0533
     30 N3         14.3400   -8.5640    6.5410 N.ar      1 ATP        -0.2714
     31 C4         15.2900   -8.7150    5.5970 C.ar      1 ATP         0.1613
     32 H1         19.7346   -3.6297    5.2820 H         1 ATP         0.0648
     33 H2         19.6083   -5.1828    4.3884 H         1 ATP         0.0648
     34 H3         17.4283   -3.9631    6.1692 H         1 ATP         0.0651
     35 H4         19.7034   -5.4096    7.0522 H         1 ATP         0.0648
     36 H5         18.3493   -5.6163    8.8981 H         1 ATP         0.2100
     37 H6         18.9963   -7.4695    5.9310 H         1 ATP         0.0676
     38 H7         18.0669   -8.7229    7.5915 H         1 ATP         0.2101
     39 H8         16.1580   -6.5759    6.7514 H         1 ATP         0.0996
     40 H9         17.8647   -8.3361    3.6644 H         1 ATP         0.1349
     41 H10        13.0952  -12.3441    4.0678 H         1 ATP         0.1820
     42 H11        14.5906  -11.8734    3.2163 H         1 ATP         0.1820
     43 H12        12.5840   -9.2400    7.4214 H         1 ATP         0.0996
@<TRIPOS>BOND
     1    1    2 ar 
     2    1    3 ar 
     3    1    4 ar 
     4    8    1 1  
     5    5    6 ar 
     6    5    7 ar 
     7    5    8 1  
     8   12    5 1  
     9    9   10 ar 
    10    9   11 ar 
    11    9   12 1  
    12    9   13 1  
    13   13   14 1  
    14   14   15 1  
    15   15   16 1  
    16   15   17 1  
    17   16   21 1  
    18   17   18 1  
    19   17   19 1  
    20   19   20 1  
    21   19   21 1  
    22   21   22 1  
    23   22   23 1  
    24   22   31 1  
    25   23   24 2  
    26   24   25 1  
    27   25   26 ar 
    28   25   31 ar 
    29   26   27 1  
    30   26   28 ar 
    31   28   29 ar 
    32   29   30 ar 
    33   30   31 ar 
    34   14   32 1  
    35   14   33 1  
    36   15   34 1  
    37   17   35 1  
    38   18   36 1  
    39   19   37 1  
    40   20   38 1  
    41   21   39 1  
    42   23   40 1  
    43   27   41 1  
    44   27   42 1  
    45   29   43 1  
@<TRIPOS>SUBSTRUCTURE
     1 ATP         1

