### 
### Created by X-TOOL on Fri Nov 18 15:25:30 2016
### 

@<TRIPOS>MOLECULE
2vxn_ligand
   14    13     1     0     0
SMALL
GAST_HUCK


@<TRIPOS>ATOM
      1 C1         26.4380   -2.5700   11.3190 C.2       1 PGH         0.2297
      2 C2         26.2920   -2.4850    9.8050 C.3       1 PGH         0.1686
      3 N2         25.5710   -1.9750   12.0050 N.am      1 PGH        -0.1620
      4 O2         25.5300   -2.1400   13.3190 O.3       1 PGH        -0.2717
      5 O1         27.3860   -3.2570   11.7500 O.2       1 PGH        -0.3940
      6 O1P        27.6160   -2.2880    9.2480 O.3       1 PGH        -0.2560
      7 O2P        29.1510   -1.5580    7.4350 O.co2     1 PGH        -0.5536
      8 O3P        27.3610   -3.3360    6.9070 O.co2     1 PGH        -0.5536
      9 O4P        26.6860   -0.9240    7.3470 O.co2     1 PGH        -0.5536
     10 P          27.6960   -2.0300    7.6410 P.3       1 PGH         0.2041
     11 H1         25.6427   -1.6383    9.5376 H         1 PGH         0.0857
     12 H2         25.8567   -3.4177    9.4170 H         1 PGH         0.0857
     13 H3         24.9086   -1.3740   11.5578 H         1 PGH         0.2217
     14 H4         25.3869   -3.0579   13.5175 H         1 PGH         0.2490
@<TRIPOS>BOND
     1    1    2 1  
     2    1    3 am 
     3    1    5 2  
     4    2    6 1  
     5    3    4 1  
     6    6   10 1  
     7   10    7 ar 
     8   10    8 ar 
     9   10    9 ar 
    10    2   11 1  
    11    2   12 1  
    12    3   13 1  
    13    4   14 1  
@<TRIPOS>SUBSTRUCTURE
     1 PGH         1

