### 
### Created by X-TOOL on Fri Nov 18 17:27:03 2016
### 

@<TRIPOS>MOLECULE
4gr8_ligand
   64    66     1     0     0
SMALL
GAST_HUCK


@<TRIPOS>ATOM
      1 O4         -8.0270   26.1270   -5.3260 O.2       1 R4C        -0.3964
      2 N1         -4.4570   22.0830   -6.2640 N.2       1 R4C        -0.1519
      3 O1         -5.5910   22.4700   -5.6850 O.3       1 R4C        -0.1670
      4 C25        -6.9460   26.3680   -4.7480 C.2       1 R4C         0.1851
      5 C17        -6.4870   25.5080   -3.6090 C.3       1 R4C         0.0781
      6 C16        -6.5900   24.0520   -4.0210 C.3       1 R4C         0.0421
      7 C14        -4.0730   23.7770   -4.8240 C.2       1 R4C        -0.0269
      8 C13        -3.5080   22.8990   -5.7700 C.2       1 R4C         0.0430
      9 C12        -2.0850   22.7460   -6.1620 C.ar      1 R4C        -0.0150
     10 C11        -1.0960   23.4670   -5.5150 C.ar      1 R4C        -0.0551
     11 C10         0.2330   23.2880   -5.8880 C.ar      1 R4C        -0.0621
     12 C7          0.5630   22.3930   -6.8960 C.ar      1 R4C        -0.0626
     13 C8         -0.4290   21.6570   -7.5410 C.ar      1 R4C        -0.0621
     14 C9         -1.7550   21.8340   -7.1590 C.ar      1 R4C        -0.0551
     15 C15        -5.4370   23.4870   -4.8030 C.2       1 R4C         0.1411
     16 C18        -7.5180   25.7840   -2.5360 C.3       1 R4C         0.0357
     17 P1         -7.2010   25.0340   -0.9150 P.3       1 R4C         0.0120
     18 O3         -5.7870   25.3240   -0.4330 O.co2     1 R4C        -0.6187
     19 O2         -7.5830   23.5750   -0.8720 O.co2     1 R4C        -0.6187
     20 C19        -8.2060   25.9570    0.1660 C.ar      1 R4C         0.0317
     21 C20        -9.5840   25.9230    0.0160 C.ar      1 R4C        -0.0373
     22 C21       -10.3970   26.6540    0.8630 C.ar      1 R4C        -0.0462
     23 C22        -9.8030   27.4220    1.8560 C.ar      1 R4C         0.0175
     24 BR1       -10.8680   28.4170    3.0420 Br        1 R4C        -0.0459
     25 C23        -8.4210   27.4610    2.0070 C.ar      1 R4C        -0.0462
     26 C24        -7.6130   26.7290    1.1520 C.ar      1 R4C        -0.0373
     27 N2         -6.1000   27.3340   -5.1060 N.am      1 R4C        -0.2655
     28 C26        -6.4460   28.4190   -6.0170 C.3       1 R4C         0.1281
     29 C30        -6.0870   28.1360   -7.4650 C.2       1 R4C         0.2036
     30 O7         -5.0680   27.5120   -7.7480 O.2       1 R4C        -0.3944
     31 C27        -5.7550   29.6960   -5.5740 C.3       1 R4C        -0.0244
     32 N3         -6.9170   28.6430   -8.3740 N.am      1 R4C        -0.2640
     33 C31        -6.6880   28.5160   -9.8110 C.3       1 R4C         0.1279
     34 C35        -5.4320   29.2530  -10.2700 C.2       1 R4C         0.1989
     35 O10        -4.8230   28.8830  -11.2740 O.2       1 R4C        -0.3947
     36 C32        -7.9090   29.0040  -10.5860 C.3       1 R4C        -0.0244
     37 N4         -5.0580   30.2980   -9.5380 N.am      1 R4C        -0.2990
     38 H1         -5.4666   25.7571   -3.2823 H         1 R4C         0.0580
     39 H2         -7.4950   23.9433   -4.6367 H         1 R4C         0.0513
     40 H3         -6.6959   23.4532   -3.1044 H         1 R4C         0.0513
     41 H4         -3.5520   24.5275   -4.2313 H         1 R4C         0.0289
     42 H5         -1.3540   24.1639   -4.7258 H         1 R4C         0.0616
     43 H6          1.0139   23.8503   -5.3888 H         1 R4C         0.0615
     44 H7          1.6003   22.2655   -7.1838 H         1 R4C         0.0610
     45 H8         -0.1715   20.9575   -8.3281 H         1 R4C         0.0615
     46 H9         -2.5360   21.2575   -7.6414 H         1 R4C         0.0616
     47 H10        -8.4872   25.4088   -2.8964 H         1 R4C         0.0485
     48 H11        -7.5753   26.8737   -2.3969 H         1 R4C         0.0485
     49 H12       -10.0263   25.3204   -0.7691 H         1 R4C         0.0682
     50 H13       -11.4752   26.6280    0.7541 H         1 R4C         0.0655
     51 H14        -7.9770   28.0627    2.7918 H         1 R4C         0.0655
     52 H15        -6.5341   26.7598    1.2529 H         1 R4C         0.0682
     53 H16        -5.1744   27.3135   -4.7280 H         1 R4C         0.1883
     54 H17        -7.5342   28.5698   -5.9621 H         1 R4C         0.0797
     55 H18        -6.0175   30.5127   -6.2625 H         1 R4C         0.0277
     56 H19        -4.6654   29.5453   -5.5824 H         1 R4C         0.0277
     57 H20        -6.0814   29.9554   -4.5561 H         1 R4C         0.0277
     58 H21        -7.7313   29.1312   -8.0599 H         1 R4C         0.1883
     59 H22        -6.5473   27.4480  -10.0336 H         1 R4C         0.0797
     60 H23        -7.7227   28.9027  -11.6654 H         1 R4C         0.0277
     61 H24        -8.0987   30.0602  -10.3442 H         1 R4C         0.0277
     62 H25        -8.7855   28.4008  -10.3070 H         1 R4C         0.0277
     63 H26        -4.2429   30.8193   -9.7906 H         1 R4C         0.1815
     64 H27        -5.5918   30.5626   -8.7349 H         1 R4C         0.1815
@<TRIPOS>BOND
     1    4    1 2  
     2    3    2 1  
     3    2    8 2  
     4   15    3 1  
     5    5    4 1  
     6    4   27 am 
     7    6    5 1  
     8    5   16 1  
     9    6   15 1  
    10    8    7 1  
    11    7   15 2  
    12    8    9 1  
    13    9   10 ar 
    14    9   14 ar 
    15   10   11 ar 
    16   11   12 ar 
    17   12   13 ar 
    18   13   14 ar 
    19   16   17 1  
    20   17   18 ar 
    21   17   19 ar 
    22   17   20 1  
    23   20   21 ar 
    24   20   26 ar 
    25   21   22 ar 
    26   22   23 ar 
    27   23   24 1  
    28   23   25 ar 
    29   25   26 ar 
    30   27   28 1  
    31   28   29 1  
    32   28   31 1  
    33   29   30 2  
    34   29   32 am 
    35   32   33 1  
    36   33   34 1  
    37   33   36 1  
    38   34   35 2  
    39   34   37 am 
    40    5   38 1  
    41    6   39 1  
    42    6   40 1  
    43    7   41 1  
    44   10   42 1  
    45   11   43 1  
    46   12   44 1  
    47   13   45 1  
    48   14   46 1  
    49   16   47 1  
    50   16   48 1  
    51   21   49 1  
    52   22   50 1  
    53   25   51 1  
    54   26   52 1  
    55   27   53 1  
    56   28   54 1  
    57   31   55 1  
    58   31   56 1  
    59   31   57 1  
    60   32   58 1  
    61   33   59 1  
    62   36   60 1  
    63   36   61 1  
    64   36   62 1  
    65   37   63 1  
    66   37   64 1  
@<TRIPOS>SUBSTRUCTURE
     1 R4C         1

