3qgw_ligand

Created by X-TOOL on Fri Nov 18 16:41:48 2016
 48 52  0  0  0  0  0  0  0  0999 V2000
   18.8490   -7.5860    4.2720  C 0  0  0  3  0  4
   19.8190   -6.9010    3.1530  C 0  0  0  3  0  4
   19.5720   -8.6200    5.1960  C 0  0  0  1  0  3
   20.9820   -8.9790    5.0870  C 0  0  0  1  0  3
   21.4400   -9.9420    6.0650  C 0  0  0  2  0  3
   18.8820   -9.5270    6.5250  S 0  0  0  1  0  2
   20.3380  -10.3160    6.9340  C 0  0  0  1  0  3
   20.4560  -11.2310    8.0670  C 0  0  0  1  0  3
   19.3000  -11.3780    8.9430  C 0  0  0  2  0  3
   21.7010  -11.9280    8.3680  C 0  0  0  2  0  3
   21.7390  -12.7410    9.5550  C 0  0  0  2  0  3
   20.5780  -12.8790   10.4320  C 0  0  0  2  0  3
   21.8740   -8.4480    4.0400  C 0  0  0  1  0  3
   21.2820   -7.4620    3.0170  C 0  0  0  1  0  3
   22.1230   -7.0780    2.0190  C 0  0  0  2  0  3
   23.4220   -7.5040    1.9140  N 0  0  0  1  0  2
   23.2850   -8.8790    3.9090  N 0  0  0  1  0  2
   24.0030   -8.3830    2.8240  C 0  0  0  1  0  3
   25.3680   -8.6950    2.6960  N 0  0  0  2  0  3
   26.0160   -9.7650    3.4740  C 0  0  0  1  0  3
   25.5840  -10.2750    4.8070  C 0  0  0  2  0  3
   27.3010  -10.2600    3.0330  C 0  0  0  2  0  3
   28.2100  -11.1700    3.6630  C 0  0  0  2  0  3
   27.7580  -11.6380    4.9230  C 0  0  0  2  0  3
   26.4490  -11.2300    5.5480  C 0  0  0  1  0  3
   26.0650  -11.8560    7.1860  S 0  0  0  1  0  4
   27.3550  -12.4570    7.7800  O 0  0  0  1  0  1
   24.8070  -12.4580    7.1500  O 0  0  0  1  0  1
   25.6990  -10.3520    8.1870  N 0  0  0  3  0  3
   19.3620  -12.1790   10.1070  C 0  0  0  2  0  3
   18.0302   -8.1026    3.7499  H 0  0  0  1  0  1
   18.4343   -6.7877    4.9051  H 0  0  0  1  0  1
   19.8980   -5.8312    3.3963  H 0  0  0  1  0  1
   19.3288   -7.0195    2.1754  H 0  0  0  1  0  1
   22.4559  -10.3275    6.1383  H 0  0  0  1  0  1
   18.3772  -10.8646    8.6981  H 0  0  0  1  0  1
   22.5663  -11.8371    7.7214  H 0  0  0  1  0  1
   22.6540  -13.2655    9.8055  H 0  0  0  1  0  1
   20.6316  -13.5016   11.3177  H 0  0  0  1  0  1
   21.7451   -6.3973    1.2648  H 0  0  0  1  0  1
   25.9382   -8.1532    2.0310  H 0  0  0  1  0  1
   24.6421   -9.9503    5.2342  H 0  0  0  1  0  1
   27.6289   -9.8817    2.0715  H 0  0  0  1  0  1
   29.1521  -11.4717    3.2197  H 0  0  0  1  0  1
   28.3907  -12.3292    5.4680  H 0  0  0  1  0  1
   25.4533  -10.4414    9.1522  H 0  0  0  1  0  1
   25.7462   -9.4467    7.7648  H 0  0  0  1  0  1
   18.4960  -12.2659   10.7532  H 0  0  0  1  0  1
  1  2  1  0  0  1
  1  3  1  0  0  1
  2 14  1  0  0  1
  3  4  2  0  0  1
  3  6  1  0  0  1
  4  5  1  0  0  1
  4 13  1  0  0  1
  5  7  2  0  0  1
  6  7  1  0  0  1
  7  8  1  0  0  2
  8  9  4  0  0  1
  8 10  4  0  0  1
  9 30  4  0  0  1
 10 11  4  0  0  1
 11 12  4  0  0  1
 12 30  4  0  0  1
 13 14  4  0  0  1
 13 17  4  0  0  1
 14 15  4  0  0  1
 15 16  4  0  0  1
 16 18  4  0  0  1
 17 18  4  0  0  1
 18 19  1  0  0  2
 19 20  1  0  0  2
 20 21  4  0  0  1
 20 22  4  0  0  1
 21 25  4  0  0  1
 22 23  4  0  0  1
 23 24  4  0  0  1
 24 25  4  0  0  1
 25 26  1  0  0  2
 26 27  2  0  0  2
 26 28  2  0  0  2
 26 29  1  0  0  2
  1 31  1  0  0  2
  1 32  1  0  0  2
  2 33  1  0  0  2
  2 34  1  0  0  2
  5 35  1  0  0  2
  9 36  1  0  0  2
 10 37  1  0  0  2
 11 38  1  0  0  2
 12 39  1  0  0  2
 15 40  1  0  0  2
 19 41  1  0  0  2
 21 42  1  0  0  2
 22 43  1  0  0  2
 23 44  1  0  0  2
 24 45  1  0  0  2
 29 46  1  0  0  2
 29 47  1  0  0  2
 30 48  1  0  0  2
M  END
> <MOLECULAR_FORMULA>
C22H18N4O2S2

> <MOLECULAR_WEIGHT>
434.4

> <NUM_HB_ATOMS>
6  

> <NUM_ROTOR>
1  

> <XLOGP2>
4.09 

$$$$
