### 
### Created by X-TOOL on Wed Dec 13 14:18:52 2017
### 

@<TRIPOS>MOLECULE
5fsx_ligand
   39    41     1     0     0
SMALL
GAST_HUCK


@<TRIPOS>ATOM
      1 PB         64.1490    5.9810   86.4030 P.3       1 ADP         0.2069
      2 O1B        62.7420    6.5460   86.4150 O.co2     1 ADP        -0.5891
      3 O2B        65.1610    6.8500   87.1210 O.co2     1 ADP        -0.5891
      4 O3B        64.2550    4.5240   86.7670 O.co2     1 ADP        -0.5891
      5 PA         63.6210    5.8420   83.5690 P.3       1 ADP         0.3276
      6 O1A        62.3800    5.0600   83.9520 O.co2     1 ADP        -0.5556
      7 O2A        64.4570    5.3700   82.4070 O.co2     1 ADP        -0.5556
      8 O3A        64.5880    6.0340   84.8500 O.3       1 ADP        -0.1548
      9 O5'        63.2250    7.3580   83.2060 O.3       1 ADP        -0.2436
     10 C5'        64.1520    8.4260   83.4190 C.3       1 ADP         0.1132
     11 C4'        64.2030    9.3410   82.2010 C.3       1 ADP         0.1189
     12 O4'        64.6360    8.5630   81.0880 O.3       1 ADP        -0.3364
     13 C3'        62.8490    9.9160   81.8190 C.3       1 ADP         0.1149
     14 O3'        62.9780   11.2710   81.3740 O.3       1 ADP        -0.3864
     15 C2'        62.4030    9.0820   80.6400 C.3       1 ADP         0.1385
     16 O2'        61.5090    9.8170   79.7910 O.3       1 ADP        -0.3836
     17 C1'        63.7530    8.7550   79.9930 C.3       1 ADP         0.2010
     18 N9         63.7000    7.5740   79.0980 N.pl3     1 ADP        -0.1919
     19 C8         63.0010    6.4380   79.3180 C.2       1 ADP         0.1123
     20 N7         63.1580    5.5810   78.2840 N.2       1 ADP        -0.2958
     21 C5         63.9570    6.1740   77.3790 C.ar      1 ADP         0.1045
     22 C6         64.5210    5.7970   76.0680 C.ar      1 ADP         0.1298
     23 N6         64.2240    4.5930   75.5350 N.pl3     1 ADP        -0.3152
     24 N1         65.3130    6.6910   75.4410 N.ar      1 ADP        -0.2698
     25 C2         65.6060    7.8960   75.9830 C.ar      1 ADP         0.0533
     26 N3         65.1360    8.2960   77.1800 N.ar      1 ADP        -0.2714
     27 C4         64.3190    7.4910   77.9140 C.ar      1 ADP         0.1613
     28 H1         65.1528    8.0061   83.5982 H         1 ADP         0.0648
     29 H2         63.8365    9.0093   84.2966 H         1 ADP         0.0648
     30 H3         64.9078   10.1627   82.3963 H         1 ADP         0.0651
     31 H4         62.1392    9.8514   82.6568 H         1 ADP         0.0648
     32 H5         62.1215   11.6095   81.1410 H         1 ADP         0.2100
     33 H6         61.8979    8.1623   80.9701 H         1 ADP         0.0676
     34 H7         61.9501   10.5923   79.4643 H         1 ADP         0.2101
     35 H8         64.0892    9.6155   79.3959 H         1 ADP         0.0996
     36 H9         62.3971    6.2410   80.2026 H         1 ADP         0.1349
     37 H10        64.6144    4.3241   74.6206 H         1 ADP         0.1820
     38 H11        63.6069    3.9431   76.0427 H         1 ADP         0.1820
     39 H12        66.2485    8.5701   75.4282 H         1 ADP         0.0996
@<TRIPOS>BOND
     1    1    2 ar 
     2    1    3 ar 
     3    1    4 ar 
     4    8    1 1  
     5    5    6 ar 
     6    5    7 ar 
     7    5    8 1  
     8    5    9 1  
     9    9   10 1  
    10   10   11 1  
    11   11   12 1  
    12   11   13 1  
    13   12   17 1  
    14   13   14 1  
    15   13   15 1  
    16   15   16 1  
    17   15   17 1  
    18   17   18 1  
    19   18   19 1  
    20   18   27 1  
    21   19   20 2  
    22   20   21 1  
    23   21   22 ar 
    24   21   27 ar 
    25   22   23 1  
    26   22   24 ar 
    27   24   25 ar 
    28   25   26 ar 
    29   26   27 ar 
    30   10   28 1  
    31   10   29 1  
    32   11   30 1  
    33   13   31 1  
    34   14   32 1  
    35   15   33 1  
    36   16   34 1  
    37   17   35 1  
    38   19   36 1  
    39   23   37 1  
    40   23   38 1  
    41   25   39 1  
@<TRIPOS>SUBSTRUCTURE
     1 ADP         1

