### 
### Created by X-TOOL on Fri Nov 18 16:05:52 2016
### 

@<TRIPOS>MOLECULE
3lpl_ligand
   16    15     1     0     0
SMALL
GAST_HUCK


@<TRIPOS>ATOM
      1 C5A        19.7830  -65.0930    0.8840 C.3       1 TDP        -0.0364
      2 C5B        18.5210  -64.2290    0.9260 C.3       1 TDP         0.0816
      3 O5G        17.6100  -64.6670    1.9410 O.3       1 TDP        -0.2466
      4 P1         16.1620  -63.9670    2.0550 P.3       1 TDP         0.3275
      5 O11        15.5010  -64.3530    0.6330 O.3       1 TDP        -0.1548
      6 O12        15.4390  -64.6030    3.1800 O.co2     1 TDP        -0.5556
      7 O13        16.3490  -62.4990    2.0870 O.co2     1 TDP        -0.5556
      8 P2         14.7500  -65.7490    0.3420 P.3       1 TDP         0.2069
      9 O21        13.4130  -65.5220   -0.2550 O.co2     1 TDP        -0.5891
     10 O22        15.7010  -66.6100   -0.6300 O.co2     1 TDP        -0.5891
     11 O23        14.6810  -66.5450    1.7420 O.co2     1 TDP        -0.5891
     12 H1         20.4536  -64.7243    0.0939 H         1 TDP         0.0255
     13 H2         19.5062  -66.1364    0.6726 H         1 TDP         0.0255
     14 H3         20.2965  -65.0395    1.8553 H         1 TDP         0.0255
     15 H4         18.0188  -64.2845   -0.0511 H         1 TDP         0.0618
     16 H5         18.8092  -63.1875    1.1316 H         1 TDP         0.0618
@<TRIPOS>BOND
     1    1    2 1  
     2    2    3 1  
     3    3    4 1  
     4    4    5 1  
     5    4    6 ar 
     6    4    7 ar 
     7    5    8 1  
     8    8    9 ar 
     9    8   10 ar 
    10    8   11 ar 
    11    1   12 1  
    12    1   13 1  
    13    1   14 1  
    14    2   15 1  
    15    2   16 1  
@<TRIPOS>SUBSTRUCTURE
     1 TDP         1

