#	Name:			5htl_ligand
#	Creating user name:	wangrx
#	Creation time:		Thu Dec 14 16:40:27 2017

#	Modifying user name:	wangrx
#	Modification time:	Thu Dec 14 16:40:54 2017

@<TRIPOS>MOLECULE
5htl_ligand
   68    74     1     0     0
SMALL
GAST_HUCK


@<TRIPOS>ATOM
      1 P1         -1.2700  -15.4640   -9.9300 P.3       1 C2E         0.2557 
      2 O2P        -2.1070  -14.3270  -10.4630 O.co2     1 C2E        -0.6177 
      3 O1P        -1.9390  -16.1900   -8.7820 O.co2     1 C2E        -0.6177 
      4 O5'        -0.9770  -16.4530  -11.1270 O.3       1 C2E        -0.2514 
      5 C5'        -0.1160  -17.5570  -11.0880 C.3       1 C2E         0.1128 
      6 C4'         0.1730  -18.1460  -12.3910 C.3       1 C2E         0.1242 
      7 O4'        -0.9890  -18.6430  -12.9820 O.3       1 C2E        -0.3359 
      8 C3'         0.7190  -17.1310  -13.3570 C.3       1 C2E         0.1540 
      9 O3'         2.1260  -17.1530  -13.3370 O.3       1 C2E        -0.2453 
     10 C2'         0.1460  -17.4740  -14.5820 C.3       1 C2E         0.1440 
     11 O2'         1.0340  -18.3340  -15.3280 O.3       1 C2E        -0.3832 
     12 C1'        -1.1320  -18.1670  -14.2880 C.3       1 C2E         0.1996 
     13 N9         -2.2350  -17.2560  -14.2990 N.pl3     1 C2E        -0.2101 
     14 C8         -2.5130  -16.0320  -13.8590 C.2       1 C2E         0.0957 
     15 N7         -3.7900  -15.7960  -14.1850 N.2       1 C2E        -0.3235 
     16 C5         -4.3010  -16.8880  -14.8280 C.2       1 C2E         0.0926 
     17 C6         -5.5710  -17.1480  -15.3560 C.2       1 C2E         0.2135 
     18 O6         -6.5480  -16.2220  -15.2870 O.2       1 C2E        -0.4091 
     19 N1         -5.8020  -18.3270  -15.9460 N.am      1 C2E        -0.1839 
     20 C2         -4.8320  -19.2430  -16.0100 C.2       1 C2E         0.2340 
     21 N2         -5.1420  -20.4820  -16.6530 N.pl3     1 C2E        -0.2807 
     22 N3         -3.5920  -19.0430  -15.5120 N.2       1 C2E        -0.2765 
     23 C4         -3.2890  -17.8700  -14.9120 C.2       1 C2E         0.1159 
     24 P11         2.9720  -15.8120  -13.4880 P.3       1 C2E         0.2557 
     25 O21         4.4480  -16.1420  -13.6350 O.co2     1 C2E        -0.6177 
     26 O11         2.5110  -15.1300  -14.7430 O.co2     1 C2E        -0.6177 
     27 O5A         2.6800  -14.8130  -12.3250 O.3       1 C2E        -0.2514 
     28 C5A         2.9900  -15.1230  -10.9760 C.3       1 C2E         0.1128 
     29 C4A         2.3720  -14.2870   -9.9790 C.3       1 C2E         0.1242 
     30 O4A         2.9240  -12.9270  -10.0510 O.3       1 C2E        -0.3359 
     31 C3A         0.9190  -14.1070  -10.1910 C.3       1 C2E         0.1540 
     32 O3A         0.1180  -14.9420   -9.3790 O.3       1 C2E        -0.2453 
     33 C2A         0.6450  -12.6840   -9.9090 C.3       1 C2E         0.1440 
     34 O2A         0.3370  -12.4290   -8.5970 O.3       1 C2E        -0.3832 
     35 C1A         1.9080  -11.9680  -10.2290 C.3       1 C2E         0.1996 
     36 N91         2.0850  -11.4420  -11.5760 N.pl3     1 C2E        -0.2101 
     37 C81         1.5570  -11.8820  -12.7350 C.2       1 C2E         0.0957 
     38 N71         2.0150  -11.1310  -13.7520 N.2       1 C2E        -0.3235 
     39 C51         2.8570  -10.2010  -13.2410 C.2       1 C2E         0.0926 
     40 C61         3.6360   -9.1640  -13.7660 C.2       1 C2E         0.2135 
     41 O61         3.6720   -8.8880  -15.1220 O.2       1 C2E        -0.4091 
     42 N11         4.3700   -8.4160  -12.9440 N.am      1 C2E        -0.1839 
     43 C21         4.3770   -8.6420  -11.6340 C.2       1 C2E         0.2340 
     44 N21         5.1820   -7.7910  -10.8530 N.pl3     1 C2E        -0.2807 
     45 N31         3.6590   -9.6250  -11.0770 N.2       1 C2E        -0.2765 
     46 C41         2.8980  -10.4100  -11.8690 C.2       1 C2E         0.1159 
     47 H1         -0.5775  -18.3303  -10.4563 H         1 C2E         0.0647 
     48 H2          0.8348  -17.2353  -10.6381 H         1 C2E         0.0647 
     49 H3          0.9017  -18.9589  -12.2562 H         1 C2E         0.0655 
     50 H4          0.3886  -16.1209  -13.0732 H         1 C2E         0.0712 
     51 H5         -0.0513  -16.5648  -15.1688 H         1 C2E         0.0681 
     52 H6          1.8541  -17.8809  -15.4849 H         1 C2E         0.2102 
     53 H7         -1.3064  -18.9860  -15.0013 H         1 C2E         0.0998 
     54 H8         -1.8367  -15.3563  -13.3375 H         1 C2E         0.1179 
     55 H9         -6.7007  -18.5220  -16.3388 H         1 C2E         0.2515 
     56 H10        -4.4251  -21.2179  -16.7258 H         1 C2E         0.1897 
     57 H11        -6.0822  -20.6385  -17.0433 H         1 C2E         0.1897 
     58 H12         4.0802  -15.0427  -10.8540 H         1 C2E         0.0647 
     59 H13         2.6753  -16.1601  -10.7879 H         1 C2E         0.0647 
     60 H14         2.5538  -14.7252   -8.9866 H         1 C2E         0.0655 
     61 H15         0.6814  -14.3264  -11.2424 H         1 C2E         0.0712 
     62 H16        -0.1779  -12.3319  -10.5483 H         1 C2E         0.0681 
     63 H17         0.1731  -11.4998   -8.4862 H         1 C2E         0.2102 
     64 H18         2.0240  -11.1363   -9.5185 H         1 C2E         0.0998 
     65 H19         0.8655  -12.7176  -12.8330 H         1 C2E         0.1179 
     66 H20         4.9246   -7.6727  -13.3181 H         1 C2E         0.2515 
     67 H21         5.2269   -7.9186   -9.8319 H         1 C2E         0.1897 
     68 H22         5.7260   -7.0408  -11.3027 H         1 C2E         0.1897 
@<TRIPOS>BOND
     1    1    2 ar   
     2    1    3 ar   
     3    1    4 1    
     4    1   32 1    
     5    4    5 1    
     6    5    6 1    
     7    6    7 1    
     8    6    8 1    
     9    7   12 1    
    10    8    9 1    
    11    8   10 1    
    12    9   24 1    
    13   10   11 1    
    14   10   12 1    
    15   12   13 1    
    16   13   14 1    
    17   13   23 1    
    18   14   15 2    
    19   15   16 1    
    20   16   17 1    
    21   16   23 2    
    22   17   18 2    
    23   17   19 am   
    24   19   20 am   
    25   20   21 1    
    26   20   22 2    
    27   22   23 1    
    28   24   25 ar   
    29   24   26 ar   
    30   24   27 1    
    31   27   28 1    
    32   28   29 1    
    33   29   30 1    
    34   29   31 1    
    35   30   35 1    
    36   31   32 1    
    37   31   33 1    
    38   33   34 1    
    39   33   35 1    
    40   35   36 1    
    41   36   37 1    
    42   36   46 1    
    43   37   38 2    
    44   38   39 1    
    45   39   40 1    
    46   39   46 2    
    47   40   41 2    
    48   40   42 am   
    49   42   43 am   
    50   43   44 1    
    51   43   45 2    
    52   45   46 1    
    53    5   47 1    
    54    5   48 1    
    55    6   49 1    
    56    8   50 1    
    57   10   51 1    
    58   11   52 1    
    59   12   53 1    
    60   14   54 1    
    61   19   55 1    
    62   21   56 1    
    63   21   57 1    
    64   28   58 1    
    65   28   59 1    
    66   29   60 1    
    67   31   61 1    
    68   33   62 1    
    69   34   63 1    
    70   35   64 1    
    71   37   65 1    
    72   42   66 1    
    73   44   67 1    
    74   44   68 1    
@<TRIPOS>SUBSTRUCTURE
     1 C2E         1 PERM              0 ****  ****    0 ROOT 
