### 
### Created by X-TOOL on Fri Nov 18 15:49:38 2016
### 

@<TRIPOS>MOLECULE
3egt_ligand
   46    46     1     0     0
SMALL
GAST_HUCK


@<TRIPOS>ATOM
      1 O1         25.4670  -12.5960    7.8980 O.co2     1 MOL        -0.5611
      2 P1         26.3160  -14.1170    8.0630 P.3       1 MOL         0.0793
      3 O3         25.1690  -15.4530    8.0760 O.co2     1 MOL        -0.5611
      4 O2         27.7550  -14.2610    7.0480 O.co2     1 MOL        -0.5611
      5 C1         26.9900  -14.0850    9.7600 C.3       1 MOL         0.1164
      6 P2         25.6350  -13.9070   10.9570 P.3       1 MOL         0.0793
      7 O4         24.5940  -12.5470   10.4450 O.co2     1 MOL        -0.5611
      8 O5         26.1780  -13.7010   12.6220 O.co2     1 MOL        -0.5611
      9 O6         24.6330  -15.3480   11.0350 O.co2     1 MOL        -0.5611
     10 C2         27.7060  -15.4150    9.9140 C.3       1 MOL         0.0603
     11 N1         28.3270  -15.6480   11.2230 N.ar      1 MOL        -0.2900
     12 C7         28.2790  -16.9100   11.6540 C.ar      1 MOL         0.1345
     13 C6         28.8300  -17.2830   12.8670 C.ar      1 MOL         0.2562
     14 C5         29.4760  -16.3190   13.6510 C.ar      1 MOL         0.0844
     15 C4         29.5330  -15.0090   13.1850 C.ar      1 MOL         0.0383
     16 C3         28.9540  -14.7030   11.9440 C.ar      1 MOL         0.0667
     17 O7         28.7260  -18.5970   13.2270 O.3       1 MOL        -0.2163
     18 C8         29.3090  -19.0570   14.4480 C.3       1 MOL         0.1121
     19 C9         28.9900  -20.5180   14.6930 C.3       1 MOL        -0.0165
     20 C10        29.8090  -20.9360   15.9300 C.3       1 MOL        -0.0499
     21 C11        29.3340  -22.2570   16.5040 C.3       1 MOL        -0.0530
     22 C12        29.1570  -23.3240   15.4450 C.3       1 MOL        -0.0533
     23 C13        27.8010  -23.9820   15.6100 C.3       1 MOL        -0.0559
     24 C14        27.8760  -25.4910   15.5730 C.3       1 MOL        -0.0653
     25 H1         27.6979  -13.2522    9.8835 H         1 MOL         0.0692
     26 H2         28.4958  -15.4657    9.1500 H         1 MOL         0.0492
     27 H3         26.9738  -16.2169    9.7383 H         1 MOL         0.0492
     28 H4         27.7967  -17.6610   11.0389 H         1 MOL         0.1373
     29 H5         29.9225  -16.5878   14.6015 H         1 MOL         0.1095
     30 H6         30.0173  -14.2368   13.7717 H         1 MOL         0.0973
     31 H7         29.0133  -13.6904   11.5616 H         1 MOL         0.1430
     32 H8         28.9132  -18.4589   15.2820 H         1 MOL         0.0720
     33 H9         30.4006  -18.9327   14.3933 H         1 MOL         0.0720
     34 H10        29.2803  -21.1230   13.8214 H         1 MOL         0.0299
     35 H11        27.9148  -20.6462   14.8866 H         1 MOL         0.0299
     36 H12        29.7107  -20.1576   16.7010 H         1 MOL         0.0266
     37 H13        30.8656  -21.0338   15.6403 H         1 MOL         0.0266
     38 H14        28.3686  -22.0958   17.0060 H         1 MOL         0.0265
     39 H15        30.0745  -22.6086   17.2375 H         1 MOL         0.0265
     40 H16        29.9473  -24.0815   15.5524 H         1 MOL         0.0265
     41 H17        29.2224  -22.8647   14.4476 H         1 MOL         0.0265
     42 H18        27.1438  -23.6424   14.7959 H         1 MOL         0.0263
     43 H19        27.3760  -23.6745   16.5769 H         1 MOL         0.0263
     44 H20        26.8671  -25.9114   15.6970 H         1 MOL         0.0230
     45 H21        28.5238  -25.8460   16.3880 H         1 MOL         0.0230
     46 H22        28.2915  -25.8139   14.6071 H         1 MOL         0.0230
@<TRIPOS>BOND
     1    1    2 ar 
     2    2    3 ar 
     3    2    4 ar 
     4    2    5 1  
     5    5    6 1  
     6    5   10 1  
     7    6    7 ar 
     8    6    8 ar 
     9    6    9 ar 
    10   10   11 1  
    11   11   12 ar 
    12   11   16 ar 
    13   12   13 ar 
    14   13   14 ar 
    15   13   17 1  
    16   14   15 ar 
    17   15   16 ar 
    18   17   18 1  
    19   18   19 1  
    20   19   20 1  
    21   20   21 1  
    22   21   22 1  
    23   22   23 1  
    24   23   24 1  
    25    5   25 1  
    26   10   26 1  
    27   10   27 1  
    28   12   28 1  
    29   14   29 1  
    30   15   30 1  
    31   16   31 1  
    32   18   32 1  
    33   18   33 1  
    34   19   34 1  
    35   19   35 1  
    36   20   36 1  
    37   20   37 1  
    38   21   38 1  
    39   21   39 1  
    40   22   40 1  
    41   22   41 1  
    42   23   42 1  
    43   23   43 1  
    44   24   44 1  
    45   24   45 1  
    46   24   46 1  
@<TRIPOS>SUBSTRUCTURE
     1 MOL         1

