### 
### Created by X-TOOL on Fri Nov 18 16:34:52 2016
### 

@<TRIPOS>MOLECULE
3qx9_ligand
   43    45     1     0     0
SMALL
GAST_HUCK


@<TRIPOS>ATOM
      1 PG         20.7120   10.3420  -24.2540 P.3       1 ATP         0.1879
      2 O1G        19.2990   10.1600  -24.7530 O.co2     1 ATP        -0.6091
      3 O2G        21.1250   11.7820  -24.0720 O.co2     1 ATP        -0.6091
      4 O3G        21.7350    9.4750  -24.9490 O.co2     1 ATP        -0.6091
      5 PB         20.7040    8.1880  -22.4320 P.3       1 ATP         0.3553
      6 O1B        19.4550    7.5560  -22.9930 O.co2     1 ATP        -0.5652
      7 O2B        22.0530    7.6380  -22.8230 O.co2     1 ATP        -0.5652
      8 O3B        20.6850    9.7710  -22.7490 O.3       1 ATP        -0.1546
      9 PA         19.3740    7.5250  -20.0490 P.3       1 ATP         0.3266
     10 O1A        19.5840    6.0430  -19.8670 O.co2     1 ATP        -0.5692
     11 O2A        18.1150    8.0400  -20.7070 O.co2     1 ATP        -0.5692
     12 O3A        20.6270    8.1740  -20.8270 O.3       1 ATP        -0.1171
     13 O5'        19.5150    8.2470  -18.6170 O.3       1 ATP        -0.2441
     14 C5'        18.5500    9.2090  -18.1930 C.3       1 ATP         0.1131
     15 C4'        18.7420    9.5290  -16.7150 C.3       1 ATP         0.1189
     16 O4'        20.1150    9.4280  -16.3340 O.3       1 ATP        -0.3364
     17 C3'        18.2890   10.9440  -16.3780 C.3       1 ATP         0.1149
     18 O3'        17.1090   10.8940  -15.5670 O.3       1 ATP        -0.3864
     19 C2'        19.4570   11.5750  -15.6330 C.3       1 ATP         0.1385
     20 O2'        19.0540   12.2020  -14.4120 O.3       1 ATP        -0.3836
     21 C1'        20.4150   10.4210  -15.3550 C.3       1 ATP         0.2010
     22 N9         21.8290   10.8530  -15.4430 N.pl3     1 ATP        -0.1919
     23 C8         22.4270   11.3970  -16.5210 C.2       1 ATP         0.1123
     24 N7         23.7300   11.6810  -16.2680 N.2       1 ATP        -0.2958
     25 C5         23.9880   11.3180  -14.9970 C.ar      1 ATP         0.1045
     26 C6         25.1630   11.3430  -14.0940 C.ar      1 ATP         0.1298
     27 N6         26.3620   11.8290  -14.5050 N.pl3     1 ATP        -0.3152
     28 N1         25.0030   10.8650  -12.8450 N.ar      1 ATP        -0.2698
     29 C2         23.8200   10.3820  -12.4200 C.ar      1 ATP         0.0533
     30 N3         22.7130   10.3310  -13.1800 N.ar      1 ATP        -0.2714
     31 C4         22.7320   10.7770  -14.4580 C.ar      1 ATP         0.1613
     32 H1         17.5395    8.8034  -18.3489 H         1 ATP         0.0648
     33 H2         18.6707   10.1295  -18.7829 H         1 ATP         0.0648
     34 H3         18.1499    8.8119  -16.1276 H         1 ATP         0.0651
     35 H4         18.0751   11.5101  -17.2965 H         1 ATP         0.0648
     36 H5         16.8308   11.7784  -15.3598 H         1 ATP         0.2100
     37 H6         19.9437   12.3270  -16.2714 H         1 ATP         0.0676
     38 H7         18.6576   11.5547  -13.8408 H         1 ATP         0.2101
     39 H8         20.2317   10.0195  -14.3475 H         1 ATP         0.0996
     40 H9         21.9297   11.5844  -17.4715 H         1 ATP         0.1349
     41 H10        27.1639   11.8357  -13.8586 H         1 ATP         0.1820
     42 H11        26.4698   12.1911  -15.4632 H         1 ATP         0.1820
     43 H12        23.7569   10.0119  -11.4031 H         1 ATP         0.0996
@<TRIPOS>BOND
     1    1    2 ar 
     2    1    3 ar 
     3    1    4 ar 
     4    8    1 1  
     5    5    6 ar 
     6    5    7 ar 
     7    5    8 1  
     8   12    5 1  
     9    9   10 ar 
    10    9   11 ar 
    11    9   12 1  
    12    9   13 1  
    13   13   14 1  
    14   14   15 1  
    15   15   16 1  
    16   15   17 1  
    17   16   21 1  
    18   17   18 1  
    19   17   19 1  
    20   19   20 1  
    21   19   21 1  
    22   21   22 1  
    23   22   23 1  
    24   22   31 1  
    25   23   24 2  
    26   24   25 1  
    27   25   26 ar 
    28   25   31 ar 
    29   26   27 1  
    30   26   28 ar 
    31   28   29 ar 
    32   29   30 ar 
    33   30   31 ar 
    34   14   32 1  
    35   14   33 1  
    36   15   34 1  
    37   17   35 1  
    38   18   36 1  
    39   19   37 1  
    40   20   38 1  
    41   21   39 1  
    42   23   40 1  
    43   27   41 1  
    44   27   42 1  
    45   29   43 1  
@<TRIPOS>SUBSTRUCTURE
     1 ATP         1

