### 
### Created by X-TOOL on Wed Dec 13 14:17:39 2017
### 

@<TRIPOS>MOLECULE
5btv_ligand
   50    49     1     0     0
SMALL
GAST_HUCK


@<TRIPOS>ATOM
      1 N          14.4380   12.6010   12.2570 N.4       1 GLY         0.2357
      2 CA         13.5790   13.7990   12.1200 C.3       1 GLY         0.0545
      3 C          14.2990   14.9140   11.3390 C.2       1 GLY         0.2237
      4 O          13.7170   15.9090   11.0130 O.2       1 GLY        -0.3910
      5 N          15.5890   14.7570   11.0170 N.am      1 GLY        -0.2588
      6 CA         16.3090   15.8410   10.2570 C.3       1 GLY         0.1587
      7 CB         17.8070   15.5550   10.3830 C.3       1 GLY         0.1184
      8 OG         18.0190   14.3030    9.7450 O.3       1 GLY        -0.2714
      9 C          15.9240   15.8520    8.7640 C.2       1 GLY         0.2065
     10 O          15.1790   14.9940    8.2690 O.2       1 GLY        -0.3943
     11 P          19.5700   13.7340    9.9390 P.3       1 GLY         0.2010
     12 O1P        19.4810   12.4910    8.9300 O.co2     1 GLY        -0.5537
     13 O2P        20.5720   14.8400    9.4670 O.co2     1 GLY        -0.5537
     14 O3P        19.4690   13.2600   11.4500 O.co2     1 GLY        -0.5537
     15 N          16.4870   16.8140    8.0330 N.am      1 GLY        -0.2636
     16 CA         16.1710   17.0560    6.6290 C.3       1 GLY         0.1312
     17 C          16.4890   15.8290    5.8050 C.2       1 GLY         0.2031
     18 O          17.4390   15.0560    6.1030 O.2       1 GLY        -0.3944
     19 CB         16.9580   18.2790    6.1150 C.3       1 GLY        -0.0101
     20 CG         16.6240   18.8350    4.7040 C.3       1 GLY        -0.0425
     21 CD1        15.2610   19.6150    4.6970 C.3       1 GLY        -0.0625
     22 CD2        17.6820   19.8720    4.3020 C.3       1 GLY        -0.0625
     23 N          15.7070   15.6390    4.7530 N.am      1 GLY        -0.2722
     24 CA         15.8560   14.4090    3.9640 C.3       1 GLY         0.0833
     25 C          15.2220   13.2780    4.7520 C.2       1 GLY         0.0570
     26 O          15.6030   12.1130    4.6160 O.co2     1 GLY        -0.5669
     27 OXT        14.3070   13.4910    5.5510 O.co2     1 GLY        -0.5669
     28 H1         13.9426   11.8893   12.7709 H         1 GLY         0.2012
     29 H2         15.2812   12.8469   12.7515 H         1 GLY         0.2012
     30 H3         14.6750   12.2510   11.3419 H         1 GLY         0.2012
     31 H4         13.3209   14.1720   13.1221 H         1 GLY         0.1061
     32 H5         12.6594   13.5218   11.5839 H         1 GLY         0.1061
     33 H6         16.0735   13.9227   11.2801 H         1 GLY         0.1885
     34 H7         16.0714   16.8202   10.6983 H         1 GLY         0.0827
     35 H8         18.0981   15.4988   11.4423 H         1 GLY         0.0662
     36 H9         18.3903   16.3426    9.8836 H         1 GLY         0.0662
     37 H10        17.1649   17.4038    8.4719 H         1 GLY         0.1883
     38 H11        15.0953   17.2684    6.5405 H         1 GLY         0.0800
     39 H12        18.0226   18.0021    6.1113 H         1 GLY         0.0315
     40 H13        16.7941   19.0960    6.8331 H         1 GLY         0.0315
     41 H14        16.5942   18.0069    3.9806 H         1 GLY         0.0298
     42 H15        15.0597   19.9923    3.6835 H         1 GLY         0.0232
     43 H16        15.3188   20.4605    5.3982 H         1 GLY         0.0232
     44 H17        14.4498   18.9386    5.0042 H         1 GLY         0.0232
     45 H18        18.6736   19.3962    4.2844 H         1 GLY         0.0232
     46 H19        17.6836   20.6958    5.0309 H         1 GLY         0.0232
     47 H20        17.4471   20.2671    3.3026 H         1 GLY         0.0232
     48 H21        15.0241   16.3240    4.4992 H         1 GLY         0.1873
     49 H22        16.9225   14.1976    3.7968 H         1 GLY         0.0689
     50 H23        15.3481   14.5214    2.9948 H         1 GLY         0.0689
@<TRIPOS>BOND
     1    1    2 1  
     2    2    3 1  
     3    3    4 2  
     4    3    5 am 
     5    5    6 1  
     6    6    7 1  
     7    6    9 1  
     8    7    8 1  
     9    8   11 1  
    10    9   10 2  
    11    9   15 am 
    12   11   12 ar 
    13   11   13 ar 
    14   11   14 ar 
    15   15   16 1  
    16   16   17 1  
    17   16   19 1  
    18   17   18 2  
    19   17   23 am 
    20   19   20 1  
    21   20   21 1  
    22   20   22 1  
    23   23   24 1  
    24   24   25 1  
    25   25   26 ar 
    26   25   27 ar 
    27    1   28 1  
    28    1   29 1  
    29    1   30 1  
    30    2   31 1  
    31    2   32 1  
    32    5   33 1  
    33    6   34 1  
    34    7   35 1  
    35    7   36 1  
    36   15   37 1  
    37   16   38 1  
    38   19   39 1  
    39   19   40 1  
    40   20   41 1  
    41   21   42 1  
    42   21   43 1  
    43   21   44 1  
    44   22   45 1  
    45   22   46 1  
    46   22   47 1  
    47   23   48 1  
    48   24   49 1  
    49   24   50 1  
@<TRIPOS>SUBSTRUCTURE
     1 GLY         1

