### 
### Created by X-TOOL on Fri Nov 18 15:15:38 2016
### 

@<TRIPOS>MOLECULE
3bxf_ligand
   30    30     1     0     0
SMALL
GAST_HUCK


@<TRIPOS>ATOM
      1 P1         11.4180    1.0530    0.8330 P.3       1 FBP         0.2009
      2 O1P        11.1050    2.3340    1.5890 O.co2     1 FBP        -0.5537
      3 O2P        10.1900    0.5190    0.1150 O.co2     1 FBP        -0.5537
      4 O3P        12.4970    1.3050   -0.2120 O.co2     1 FBP        -0.5537
      5 O1         11.9820   -0.0070    1.9090 O.3       1 FBP        -0.2706
      6 C1         11.1930   -0.2390    3.0500 C.3       1 FBP         0.1347
      7 C2         11.9920   -0.7500    4.2460 C.3       1 FBP         0.2253
      8 O2         11.0670   -1.0680    5.3130 O.3       1 FBP        -0.3606
      9 C3         13.0410    0.1990    4.7890 C.3       1 FBP         0.1396
     10 O3         12.5050    1.2580    5.5360 O.3       1 FBP        -0.3837
     11 C4         13.8780   -0.7220    5.6480 C.3       1 FBP         0.1148
     12 O4         15.1980   -0.2420    5.6830 O.3       1 FBP        -0.3864
     13 C5         13.8560   -1.9600    4.7690 C.3       1 FBP         0.1181
     14 O5         12.6880   -1.9320    3.9530 O.3       1 FBP        -0.3358
     15 C6         13.9990   -3.2710    5.4920 C.3       1 FBP         0.1071
     16 O6         13.9910   -4.2620    4.4890 O.3       1 FBP        -0.2734
     17 P2         14.2760   -5.7830    4.8420 P.3       1 FBP         0.2008
     18 O4P        15.6710   -5.9070    5.4140 O.co2     1 FBP        -0.5537
     19 O5P        14.0920   -6.5640    3.5590 O.co2     1 FBP        -0.5537
     20 O6P        13.2400   -6.1520    5.8600 O.co2     1 FBP        -0.5537
     21 H1         10.4265   -0.9865    2.7978 H         1 FBP         0.0667
     22 H2         10.7051    0.7050    3.3344 H         1 FBP         0.0667
     23 H3         10.4717   -1.7488    5.0221 H         1 FBP         0.2129
     24 H4         13.6402    0.6191    3.9677 H         1 FBP         0.0675
     25 H5         12.0249    0.9095    6.2779 H         1 FBP         0.2101
     26 H6         13.4694   -0.8812    6.6568 H         1 FBP         0.0648
     27 H7         15.2056    0.6340    6.0504 H         1 FBP         0.2100
     28 H8         14.7255   -1.8851    4.0995 H         1 FBP         0.0650
     29 H9         13.1584   -3.4204    6.1855 H         1 FBP         0.0639
     30 H10        14.9456   -3.2993    6.0516 H         1 FBP         0.0639
@<TRIPOS>BOND
     1    1    2 ar 
     2    1    3 ar 
     3    1    4 ar 
     4    1    5 1  
     5    5    6 1  
     6    6    7 1  
     7    7    8 1  
     8    7    9 1  
     9    7   14 1  
    10    9   10 1  
    11    9   11 1  
    12   11   12 1  
    13   11   13 1  
    14   13   14 1  
    15   13   15 1  
    16   15   16 1  
    17   16   17 1  
    18   17   18 ar 
    19   17   19 ar 
    20   17   20 ar 
    21    6   21 1  
    22    6   22 1  
    23    8   23 1  
    24    9   24 1  
    25   10   25 1  
    26   11   26 1  
    27   12   27 1  
    28   13   28 1  
    29   15   29 1  
    30   15   30 1  
@<TRIPOS>SUBSTRUCTURE
     1 FBP         1

