### 
### Created by X-TOOL on Wed Dec 13 14:17:43 2017
### 

@<TRIPOS>MOLECULE
5cks_ligand
   30    29     1     0     0
SMALL
GAST_HUCK


@<TRIPOS>ATOM
      1 N1         43.0610 -407.5510   15.0570 N.2       1 MOL        -0.1610
      2 C4         42.9460 -403.4370   16.7650 C.3       1 MOL         0.1111
      3 C5         43.9220 -402.2730   16.5270 C.3       1 MOL         0.1112
      4 C6         44.3330 -401.6110   17.8490 C.3       1 MOL         0.1068
      5 C17        41.2540 -406.8300   13.7080 C.2       1 MOL         0.0774
      6 O30        40.4650 -405.8980   13.4140 O.co2     1 MOL        -0.5593
      7 O29        41.3200 -407.8600   12.9850 O.co2     1 MOL        -0.5593
      8 C1         42.1240 -406.7140   14.9030 C.2       1 MOL         0.0881
      9 O27        43.9170 -407.4890   16.1670 O.3       1 MOL        -0.2624
     10 C2         41.9850 -405.6320   15.9600 C.3       1 MOL         0.0279
     11 C3         42.8460 -404.4160   15.5860 C.3       1 MOL         0.0940
     12 O3         42.2940 -403.7650   14.4210 O.3       1 MOL        -0.3870
     13 O4         41.6370 -402.9120   17.0660 O.3       1 MOL        -0.3864
     14 O5         45.0960 -402.7040   15.8170 O.3       1 MOL        -0.3865
     15 O6         44.9910 -400.3580   17.6000 O.3       1 MOL        -0.2734
     16 P          45.7770 -399.5450   18.7630 P.3       1 MOL         0.2008
     17 O2P        44.7640 -399.4100   19.8880 O.co2     1 MOL        -0.5537
     18 O3P        46.9720 -400.4100   19.1050 O.co2     1 MOL        -0.5537
     19 O1P        46.1160 -398.2360   18.0780 O.co2     1 MOL        -0.5537
     20 H1         43.3059 -404.0014   17.6379 H         1 MOL         0.0648
     21 H2         43.4060 -401.5212   15.9118 H         1 MOL         0.0646
     22 H3         45.0189 -402.2789   18.3906 H         1 MOL         0.0639
     23 H4         43.4354 -401.4336   18.4597 H         1 MOL         0.0639
     24 H5         44.5537 -408.1921   16.1141 H         1 MOL         0.2747
     25 H6         42.3163 -406.0275   16.9315 H         1 MOL         0.0464
     26 H7         40.9312 -405.3242   16.0294 H         1 MOL         0.0464
     27 H8         43.8594 -404.7673   15.3418 H         1 MOL         0.0643
     28 H9         42.8306 -403.0143   14.1950 H         1 MOL         0.2101
     29 H10        41.6999 -402.3066   17.7954 H         1 MOL         0.2100
     30 H11        44.8379 -403.1132   14.9995 H         1 MOL         0.2100
@<TRIPOS>BOND
     1    8    1 2  
     2    1    9 1  
     3    2    3 1  
     4   11    2 1  
     5    2   13 1  
     6    3    4 1  
     7    3   14 1  
     8    4   15 1  
     9    5    6 ar 
    10    5    7 ar 
    11    8    5 1  
    12   10    8 1  
    13   10   11 1  
    14   11   12 1  
    15   15   16 1  
    16   16   17 ar 
    17   16   18 ar 
    18   16   19 ar 
    19    2   20 1  
    20    3   21 1  
    21    4   22 1  
    22    4   23 1  
    23    9   24 1  
    24   10   25 1  
    25   10   26 1  
    26   11   27 1  
    27   12   28 1  
    28   13   29 1  
    29   14   30 1  
@<TRIPOS>SUBSTRUCTURE
     1 MOL         1

