### 
### Created by X-TOOL on Fri Nov 18 12:51:19 2016
### 

@<TRIPOS>MOLECULE
1hn4_ligand
   75    74     1     0     0
SMALL
GAST_HUCK


@<TRIPOS>ATOM
      1 C1         17.6620   14.6390   11.8510 C.3       1 MJI         0.0811
      2 O1         16.9590   15.7970   12.2200 O.3       1 MJI        -0.3767
      3 C2         18.5690   14.9360   10.6840 C.3       1 MJI         0.1407
      4 O2         17.8760   15.7120    9.6740 O.3       1 MJI        -0.2462
      5 C3         19.7820   15.7060   11.1580 C.3       1 MJI         0.0815
      6 O3         20.3930   16.3550   10.0710 O.3       1 MJI        -0.3679
      7 C31        21.2720   15.5020    9.3740 C.3       1 MJI         0.1427
      8 C32        22.2780   16.2960    8.5760 C.3       1 MJI         0.4128
      9 P2         17.3330   15.0270    8.3220 P.3       1 MJI         0.2553
     10 O21        16.9210   16.1210    7.3690 O.co2     1 MJI        -0.6177
     11 O22        18.3060   13.9770    7.8640 O.co2     1 MJI        -0.6177
     12 C2P        14.9090   15.0020    9.3820 C.3       1 MJI         0.0727
     13 O23        16.0110   14.2710    8.8210 O.3       1 MJI        -0.2574
     14 C11        16.2080   15.5770   13.3760 C.3       1 MJI         0.0478
     15 C12        15.0100   16.5060   13.3670 C.3       1 MJI        -0.0295
     16 C13        15.1650   17.5470   14.4680 C.3       1 MJI        -0.0510
     17 C14        14.6940   16.9670   15.7980 C.3       1 MJI        -0.0530
     18 C15        15.4660   17.6210   16.9300 C.3       1 MJI        -0.0531
     19 C16        15.9530   16.5510   17.8950 C.3       1 MJI        -0.0531
     20 C17        17.4350   16.7440   18.1550 C.3       1 MJI        -0.0531
     21 C18        17.6320   17.6610   19.3530 C.3       1 MJI        -0.0531
     22 C19        17.9330   16.8190   20.5840 C.3       1 MJI        -0.0531
     23 C20        19.3920   17.0010   20.9750 C.3       1 MJI        -0.0531
     24 C21        19.6970   16.1470   22.2010 C.3       1 MJI        -0.0531
     25 C22        20.3430   14.8360   21.7700 C.3       1 MJI        -0.0531
     26 C23        21.1280   14.2540   22.9380 C.3       1 MJI        -0.0531
     27 C24        21.1420   12.7340   22.8470 C.3       1 MJI        -0.0533
     28 C25        21.7390   12.1570   24.1270 C.3       1 MJI        -0.0559
     29 C26        22.2030   10.7240   23.8760 C.3       1 MJI        -0.0653
     30 F31        23.0220   17.1620    9.3250 F         1 MJI        -0.1682
     31 F32        21.7440   17.0130    7.5610 F         1 MJI        -0.1682
     32 F33        23.1200   15.4470    8.0230 F         1 MJI        -0.1682
     33 H1         18.2658   14.2926   12.7027 H         1 MJI         0.0590
     34 H2         16.9463   13.8540   11.5655 H         1 MJI         0.0590
     35 H3         18.8972   13.9848   10.2396 H         1 MJI         0.0703
     36 H4         20.4994   15.0097   11.6168 H         1 MJI         0.0590
     37 H5         19.4709   16.4547   11.9014 H         1 MJI         0.0590
     38 H6         20.6900   14.8676    8.6893 H         1 MJI         0.0650
     39 H7         21.8062   14.8678   10.0967 H         1 MJI         0.0650
     40 H8         14.1073   14.3015    9.6588 H         1 MJI         0.0584
     41 H9         14.5290   15.7193    8.6397 H         1 MJI         0.0584
     42 H10        15.2468   15.5449   10.2771 H         1 MJI         0.0584
     43 H11        16.8265   15.7806   14.2626 H         1 MJI         0.0560
     44 H12        15.8649   14.5322   13.4003 H         1 MJI         0.0560
     45 H13        14.0932   15.9234   13.5400 H         1 MJI         0.0287
     46 H14        14.9451   17.0109   12.3919 H         1 MJI         0.0287
     47 H15        14.5605   18.4322   14.2212 H         1 MJI         0.0266
     48 H16        16.2230   17.8367   14.5503 H         1 MJI         0.0266
     49 H17        14.8728   15.8817   15.8099 H         1 MJI         0.0265
     50 H18        13.6190   17.1630   15.9247 H         1 MJI         0.0265
     51 H19        14.8096   18.3245   17.4632 H         1 MJI         0.0265
     52 H20        16.3294   18.1647   16.5191 H         1 MJI         0.0265
     53 H21        15.7839   15.5566   17.4562 H         1 MJI         0.0265
     54 H22        15.4005   16.6325   18.8427 H         1 MJI         0.0265
     55 H23        17.9058   17.1945   17.2688 H         1 MJI         0.0265
     56 H24        17.8998   15.7686   18.3612 H         1 MJI         0.0265
     57 H25        16.7163   18.2463   19.5227 H         1 MJI         0.0265
     58 H26        18.4728   18.3434   19.1596 H         1 MJI         0.0265
     59 H27        17.7425   15.7591   20.3595 H         1 MJI         0.0265
     60 H28        17.2875   17.1396   21.4150 H         1 MJI         0.0265
     61 H29        19.5803   18.0593   21.2087 H         1 MJI         0.0265
     62 H30        20.0374   16.6892   20.1406 H         1 MJI         0.0265
     63 H31        18.7616   15.9334   22.7390 H         1 MJI         0.0265
     64 H32        20.3850   16.6923   22.8638 H         1 MJI         0.0265
     65 H33        21.0236   15.0217   20.9260 H         1 MJI         0.0265
     66 H34        19.5620   14.1254   21.4617 H         1 MJI         0.0265
     67 H35        20.6549   14.5584   23.8832 H         1 MJI         0.0265
     68 H36        22.1610   14.6307   22.9070 H         1 MJI         0.0265
     69 H37        21.7508   12.4232   21.9852 H         1 MJI         0.0265
     70 H38        20.1137   12.3640   22.7221 H         1 MJI         0.0265
     71 H39        20.9772   12.1613   24.9205 H         1 MJI         0.0263
     72 H40        22.5972   12.7701   24.4393 H         1 MJI         0.0263
     73 H41        22.6329   10.3106   24.8003 H         1 MJI         0.0230
     74 H42        22.9652   10.7190   23.0829 H         1 MJI         0.0230
     75 H43        21.3452   10.1101   23.5641 H         1 MJI         0.0230
@<TRIPOS>BOND
     1    3    1 1  
     2    1    2 1  
     3    2   14 1  
     4   14   15 1  
     5   15   16 1  
     6   16   17 1  
     7   17   18 1  
     8   18   19 1  
     9   19   20 1  
    10   20   21 1  
    11   21   22 1  
    12   22   23 1  
    13   23   24 1  
    14   24   25 1  
    15   25   26 1  
    16   26   27 1  
    17   27   28 1  
    18   28   29 1  
    19    3    5 1  
    20    3    4 1  
    21    4    9 1  
    22    9   13 1  
    23    9   11 ar 
    24    9   10 ar 
    25   13   12 1  
    26    5    6 1  
    27    6    7 1  
    28    7    8 1  
    29    8   30 1  
    30    8   32 1  
    31    8   31 1  
    32    1   33 1  
    33    1   34 1  
    34    3   35 1  
    35    5   36 1  
    36    5   37 1  
    37    7   38 1  
    38    7   39 1  
    39   12   40 1  
    40   12   41 1  
    41   12   42 1  
    42   14   43 1  
    43   14   44 1  
    44   15   45 1  
    45   15   46 1  
    46   16   47 1  
    47   16   48 1  
    48   17   49 1  
    49   17   50 1  
    50   18   51 1  
    51   18   52 1  
    52   19   53 1  
    53   19   54 1  
    54   20   55 1  
    55   20   56 1  
    56   21   57 1  
    57   21   58 1  
    58   22   59 1  
    59   22   60 1  
    60   23   61 1  
    61   23   62 1  
    62   24   63 1  
    63   24   64 1  
    64   25   65 1  
    65   25   66 1  
    66   26   67 1  
    67   26   68 1  
    68   27   69 1  
    69   27   70 1  
    70   28   71 1  
    71   28   72 1  
    72   29   73 1  
    73   29   74 1  
    74   29   75 1  
@<TRIPOS>SUBSTRUCTURE
     1 MJI         1

