### 
### Created by X-TOOL on Fri Nov 18 17:08:54 2016
### 

@<TRIPOS>MOLECULE
4gah_ligand
  112   114     1     0     0
SMALL
GAST_HUCK


@<TRIPOS>ATOM
      1 S1         23.0330   64.9430   39.9470 S.3       1 MOL        -0.1562
      2 C2         21.9410   63.6360   40.4030 C.3       1 MOL         0.0140
      3 C3         22.7260   62.3530   40.6520 C.3       1 MOL         0.0399
      4 N4         23.3900   62.0400   39.3870 N.am      1 MOL        -0.2861
      5 C5         22.9670   61.1310   38.5220 C.2       1 MOL         0.1779
      6 O5         21.9480   60.4880   38.7520 O.2       1 MOL        -0.3970
      7 C6         23.7780   60.9520   37.2560 C.3       1 MOL         0.0574
      8 C7         23.5400   59.5850   36.6050 C.3       1 MOL         0.0477
      9 N8         24.5120   59.4930   35.5210 N.am      1 MOL        -0.2826
     10 C9         24.3830   59.8670   34.3050 C.2       1 MOL         0.2057
     11 O9         23.2420   60.4200   33.8830 O.2       1 MOL        -0.3942
     12 CP         23.5950   64.9520   41.6210 C.3       1 MOL         0.0199
     13 C10        25.5300   59.6670   33.3430 C.3       1 MOL         0.1510
     14 O10        26.4050   58.6280   33.7890 O.3       1 MOL        -0.3708
     15 C11        26.3750   60.9250   33.2490 C.3       1 MOL         0.0367
     16 C12        27.4330   60.7610   32.1570 C.3       1 MOL         0.0936
     17 C13        27.0550   61.1280   34.6040 C.3       1 MOL        -0.0528
     18 C14        25.4590   62.0860   32.9000 C.3       1 MOL        -0.0528
     19 N1A        33.5580   57.0260   37.0730 N.ar      1 MOL        -0.2698
     20 O1A        29.0190   58.0170   29.9970 O.co2     1 MOL        -0.6127
     21 P1A        29.7180   59.1310   29.2550 P.3       1 MOL         0.2972
     22 C1M        22.8240   65.8750   42.5820 C.3       1 MOL         0.0657
     23 O1M        21.4100   65.8890   42.3430 O.3       1 MOL        -0.3908
     24 C1X        33.5720   58.9300   32.2590 C.3       1 MOL         0.2013
     25 C2A        34.6040   57.3450   36.2890 C.ar      1 MOL         0.0533
     26 O2A        29.9530   59.0100   27.7640 O.co2     1 MOL        -0.6127
     27 P2A        27.3840   60.7430   29.4240 P.3       1 MOL         0.2971
     28 C2M        23.3740   67.2930   42.5180 C.3       1 MOL        -0.0195
     29 C2X        33.4900   58.0530   31.0240 C.3       1 MOL         0.1432
     30 O2X        34.5060   57.0490   31.0840 O.3       1 MOL        -0.3832
     31 N3A        34.4350   57.8280   35.0480 N.ar      1 MOL        -0.2714
     32 O3A        28.9790   60.5250   29.5700 O.3       1 MOL        -0.1319
     33 C3M        22.4400   68.2670   43.2280 C.3       1 MOL        -0.0341
     34 C3X        33.7840   59.0540   29.9310 C.3       1 MOL         0.1487
     35 O3X        35.1980   59.1630   29.9110 O.3       1 MOL        -0.2674
     36 P3X        36.0770   59.1030   28.5630 P.3       1 MOL         0.2013
     37 C4A        33.1870   58.0000   34.5440 C.ar      1 MOL         0.1613
     38 O4A        26.8020   59.6000   28.6300 O.co2     1 MOL        -0.6127
     39 C4M        22.2480   69.4140   42.2730 C.2       1 MOL        -0.0986
     40 C4X        33.2210   60.3790   30.4340 C.3       1 MOL         0.1235
     41 O4X        33.1450   60.2470   31.8510 O.3       1 MOL        -0.3360
     42 C5A        32.0860   57.6690   35.3220 C.ar      1 MOL         0.1045
     43 O5A        27.1560   62.1790   28.9940 O.co2     1 MOL        -0.6127
     44 C5M        21.0520   69.9160   41.9940 C.2       1 MOL        -0.0987
     45 C5X        31.8180   60.6280   29.9030 C.3       1 MOL         0.1131
     46 O5X        31.1540   59.3700   29.9350 O.3       1 MOL        -0.2476
     47 C6A        32.2860   57.1680   36.6190 C.ar      1 MOL         0.1298
     48 N6A        31.2310   56.8290   37.4200 N.pl3     1 MOL        -0.3152
     49 O6A        26.7660   60.5390   30.9120 O.3       1 MOL        -0.2496
     50 C6M        21.0210   71.0600   41.0070 C.3       1 MOL        -0.0365
     51 N7A        30.9860   57.9460   34.5850 N.2       1 MOL        -0.2958
     52 O7A        35.4290   58.0140   27.7320 O.co2     1 MOL        -0.5537
     53 C7M        20.4330   70.5420   39.6970 C.3       1 MOL        -0.0464
     54 C8A        31.3960   58.4240   33.3880 C.2       1 MOL         0.1123
     55 O8A        37.4640   58.7450   29.0560 O.co2     1 MOL        -0.5537
     56 C8M        21.5130   70.3050   38.6470 C.3       1 MOL        -0.0518
     57 N9A        32.7330   58.4480   33.3730 N.pl3     1 MOL        -0.1919
     58 O9A        35.9610   60.5160   28.0220 O.co2     1 MOL        -0.5537
     59 C9M        20.9010   70.3150   37.2480 C.3       1 MOL        -0.0558
     60 CAM        21.0480   68.9680   36.5710 C.3       1 MOL        -0.0653
     61 H1         21.2181   63.4673   39.5913 H         1 MOL         0.0396
     62 H2         21.4031   63.9161   41.3207 H         1 MOL         0.0396
     63 H3         22.0460   61.5376   40.9396 H         1 MOL         0.0528
     64 H4         23.4702   62.5075   41.4472 H         1 MOL         0.0528
     65 H5         24.2210   62.5476   39.1596 H         1 MOL         0.1851
     66 H6         24.8458   61.0457   37.5030 H         1 MOL         0.0522
     67 H7         23.4966   61.7389   36.5407 H         1 MOL         0.0522
     68 H8         22.5158   59.5213   36.2089 H         1 MOL         0.0545
     69 H9         23.7016   58.7784   37.3352 H         1 MOL         0.0545
     70 H10        25.3931   59.0847   35.7598 H         1 MOL         0.1853
     71 H11        24.6484   65.2686   41.6216 H         1 MOL         0.0402
     72 H12        23.5206   63.9248   42.0075 H         1 MOL         0.0402
     73 H13        25.1249   59.4130   32.3524 H         1 MOL         0.0844
     74 H14        25.9198   57.8139   33.8559 H         1 MOL         0.2133
     75 H15        28.0784   59.9015   32.3911 H         1 MOL         0.0628
     76 H16        28.0452   61.6726   32.0930 H         1 MOL         0.0628
     77 H17        26.2890   61.2453   35.3847 H         1 MOL         0.0238
     78 H18        27.6827   62.0306   34.5677 H         1 MOL         0.0238
     79 H19        27.6822   60.2542   34.8341 H         1 MOL         0.0238
     80 H20        24.9907   61.9023   31.9217 H         1 MOL         0.0238
     81 H21        26.0454   63.0157   32.8570 H         1 MOL         0.0238
     82 H22        24.6777   62.1805   33.6685 H         1 MOL         0.0238
     83 H23        22.9832   65.4938   43.6015 H         1 MOL         0.0603
     84 H24        20.9908   66.4733   42.9638 H         1 MOL         0.2098
     85 H25        34.6159   58.9685   32.6036 H         1 MOL         0.0996
     86 H26        35.6097   57.2083   36.6696 H         1 MOL         0.0996
     87 H27        23.4758   67.5935   41.4647 H         1 MOL         0.0310
     88 H28        24.3605   67.3198   43.0040 H         1 MOL         0.0310
     89 H29        32.4993   57.5901   30.9044 H         1 MOL         0.0680
     90 H30        35.3592   57.4653   31.1214 H         1 MOL         0.2101
     91 H31        22.8943   68.6201   44.1655 H         1 MOL         0.0389
     92 H32        21.4761   67.7842   43.4466 H         1 MOL         0.0389
     93 H33        33.3680   58.7631   28.9551 H         1 MOL         0.0704
     94 H34        23.1236   69.8483   41.7929 H         1 MOL         0.0450
     95 H35        33.8822   61.2104   30.1483 H         1 MOL         0.0654
     96 H36        20.1437   69.5256   42.4506 H         1 MOL         0.0450
     97 H37        31.8622   61.0100   28.8724 H         1 MOL         0.0648
     98 H38        31.2918   61.3535   30.5407 H         1 MOL         0.0648
     99 H39        30.2666   56.9371   37.0747 H         1 MOL         0.1820
    100 H40        31.4006   56.4655   38.3687 H         1 MOL         0.1820
    101 H41        22.0418   71.4322   40.8358 H         1 MOL         0.0388
    102 H42        20.3949   71.8745   41.4001 H         1 MOL         0.0388
    103 H43        19.7170   71.2822   39.3106 H         1 MOL         0.0285
    104 H44        19.9109   69.5935   39.8913 H         1 MOL         0.0285
    105 H45        30.7458   58.7371   32.5725 H         1 MOL         0.1349
    106 H46        21.9882   69.3297   38.8285 H         1 MOL         0.0267
    107 H47        22.2695   71.1004   38.7181 H         1 MOL         0.0267
    108 H48        21.4092   71.0783   36.6404 H         1 MOL         0.0263
    109 H49        19.8318   70.5611   37.3268 H         1 MOL         0.0263
    110 H50        20.5978   69.0106   35.5683 H         1 MOL         0.0230
    111 H51        20.5378   68.1991   37.1697 H         1 MOL         0.0230
    112 H52        22.1152   68.7162   36.4833 H         1 MOL         0.0230
@<TRIPOS>BOND
     1    2    1 1  
     2    1   12 1  
     3    3    2 1  
     4    4    3 1  
     5    5    4 am 
     6    5    6 2  
     7    7    5 1  
     8    8    7 1  
     9    9    8 1  
    10   10    9 am 
    11   10   11 2  
    12   13   10 1  
    13   12   22 1  
    14   13   14 1  
    15   15   13 1  
    16   16   15 1  
    17   15   17 1  
    18   15   18 1  
    19   49   16 1  
    20   25   19 ar 
    21   47   19 ar 
    22   21   20 ar 
    23   21   26 ar 
    24   21   32 1  
    25   46   21 1  
    26   22   23 1  
    27   22   28 1  
    28   24   29 1  
    29   41   24 1  
    30   24   57 1  
    31   31   25 ar 
    32   32   27 1  
    33   27   38 ar 
    34   27   43 ar 
    35   27   49 1  
    36   28   33 1  
    37   29   30 1  
    38   34   29 1  
    39   37   31 ar 
    40   33   39 1  
    41   34   35 1  
    42   40   34 1  
    43   35   36 1  
    44   36   52 ar 
    45   36   55 ar 
    46   36   58 ar 
    47   37   42 ar 
    48   57   37 1  
    49   39   44 2  
    50   40   41 1  
    51   45   40 1  
    52   42   47 ar 
    53   42   51 1  
    54   44   50 1  
    55   45   46 1  
    56   47   48 1  
    57   50   53 1  
    58   51   54 2  
    59   53   56 1  
    60   54   57 1  
    61   56   59 1  
    62   59   60 1  
    63    2   61 1  
    64    2   62 1  
    65    3   63 1  
    66    3   64 1  
    67    4   65 1  
    68    7   66 1  
    69    7   67 1  
    70    8   68 1  
    71    8   69 1  
    72    9   70 1  
    73   12   71 1  
    74   12   72 1  
    75   13   73 1  
    76   14   74 1  
    77   16   75 1  
    78   16   76 1  
    79   17   77 1  
    80   17   78 1  
    81   17   79 1  
    82   18   80 1  
    83   18   81 1  
    84   18   82 1  
    85   22   83 1  
    86   23   84 1  
    87   24   85 1  
    88   25   86 1  
    89   28   87 1  
    90   28   88 1  
    91   29   89 1  
    92   30   90 1  
    93   33   91 1  
    94   33   92 1  
    95   34   93 1  
    96   39   94 1  
    97   40   95 1  
    98   44   96 1  
    99   45   97 1  
   100   45   98 1  
   101   48   99 1  
   102   48  100 1  
   103   50  101 1  
   104   50  102 1  
   105   53  103 1  
   106   53  104 1  
   107   54  105 1  
   108   56  106 1  
   109   56  107 1  
   110   59  108 1  
   111   59  109 1  
   112   60  110 1  
   113   60  111 1  
   114   60  112 1  
@<TRIPOS>SUBSTRUCTURE
     1 MOL         1

