### 
### Created by X-TOOL on Wed Dec 13 14:20:18 2017
### 

@<TRIPOS>MOLECULE
5k8s_ligand
   33    36     1     0     0
SMALL
GAST_HUCK


@<TRIPOS>ATOM
      1 P          19.4600  -18.0760  -18.1420 P.3       1 CMP         0.2557
      2 O1P        19.3110  -16.7860  -18.9740 O.co2     1 CMP        -0.6177
      3 O2P        20.8040  -18.5290  -17.7540 O.co2     1 CMP        -0.6177
      4 O5'        18.7590  -19.3010  -18.8960 O.3       1 CMP        -0.2514
      5 C5'        18.4550  -20.5120  -18.1930 C.3       1 CMP         0.1128
      6 C4'        17.6860  -20.1180  -16.9770 C.3       1 CMP         0.1242
      7 O4'        17.4520  -21.1730  -16.0380 O.3       1 CMP        -0.3360
      8 C3'        18.3670  -19.0960  -16.1230 C.3       1 CMP         0.1540
      9 O3'        18.5180  -17.8520  -16.7970 O.3       1 CMP        -0.2453
     10 C2'        17.4730  -19.0890  -14.8840 C.3       1 CMP         0.1439
     11 O2'        16.3300  -18.2730  -15.1040 O.3       1 CMP        -0.3832
     12 C1'        16.9970  -20.5610  -14.8530 C.3       1 CMP         0.2014
     13 N9         17.4630  -21.3200  -13.6820 N.pl3     1 CMP        -0.1919
     14 C8         16.6820  -22.1140  -12.9030 C.2       1 CMP         0.1123
     15 N7         17.4280  -22.6630  -11.9330 N.2       1 CMP        -0.2958
     16 C5         18.6910  -22.1980  -12.1180 C.ar      1 CMP         0.1045
     17 C6         19.8220  -22.4480  -11.3880 C.ar      1 CMP         0.1298
     18 N6         20.0010  -23.2660  -10.2450 N.pl3     1 CMP        -0.3152
     19 N1         20.9880  -21.8740  -11.7510 N.ar      1 CMP        -0.2698
     20 C2         21.0040  -21.0490  -12.8500 C.ar      1 CMP         0.0533
     21 N3         19.8850  -20.7740  -13.5890 N.ar      1 CMP        -0.2714
     22 C4         18.7290  -21.3730  -13.1950 C.ar      1 CMP         0.1613
     23 H1         19.3834  -21.0266  -17.9045 H         1 CMP         0.0647
     24 H2         17.8490  -21.1765  -18.8263 H         1 CMP         0.0647
     25 H3         16.7210  -19.7206  -17.3245 H         1 CMP         0.0655
     26 H4         19.3732  -19.4423  -15.8444 H         1 CMP         0.0712
     27 H5         18.0120  -18.7874  -13.9738 H         1 CMP         0.0680
     28 H6         16.6081  -17.3842  -15.2911 H         1 CMP         0.2101
     29 H7         15.8971  -20.5686  -14.8422 H         1 CMP         0.0996
     30 H8         15.6149  -22.2790  -13.0446 H         1 CMP         0.1349
     31 H9         20.9311  -23.3465   -9.8098 H         1 CMP         0.1820
     32 H10        19.2010  -23.7802   -9.8493 H         1 CMP         0.1820
     33 H11        21.9438  -20.5962  -13.1445 H         1 CMP         0.0996
@<TRIPOS>BOND
     1    1    2 ar 
     2    1    3 ar 
     3    1    4 1  
     4    1    9 1  
     5    4    5 1  
     6    5    6 1  
     7    6    7 1  
     8    6    8 1  
     9    7   12 1  
    10    8    9 1  
    11    8   10 1  
    12   10   11 1  
    13   10   12 1  
    14   12   13 1  
    15   13   14 1  
    16   13   22 1  
    17   14   15 2  
    18   15   16 1  
    19   16   17 ar 
    20   16   22 ar 
    21   17   18 1  
    22   17   19 ar 
    23   19   20 ar 
    24   20   21 ar 
    25   21   22 ar 
    26    5   23 1  
    27    5   24 1  
    28    6   25 1  
    29    8   26 1  
    30   10   27 1  
    31   11   28 1  
    32   12   29 1  
    33   14   30 1  
    34   18   31 1  
    35   18   32 1  
    36   20   33 1  
@<TRIPOS>SUBSTRUCTURE
     1 CMP         1

