### 
### Created by X-TOOL on Fri Nov 18 16:28:04 2016
### 

@<TRIPOS>MOLECULE
3ove_ligand
   70    71     1     0     0
SMALL
GAST_HUCK


@<TRIPOS>ATOM
      1 C          -7.5820    7.1450    2.5380 C.2       1 ACT         0.1753
      2 O          -8.7730    6.5600    2.5770 O.2       1 ACT        -0.3972
      3 CH3        -6.7720    7.0050    3.6880 C.3       1 ACT         0.0258
      4 N          -7.1200    7.9360    1.5260 N.am      1 ACT        -0.2628
      5 CA         -8.0060    8.1670    0.3510 C.3       1 ACT         0.1465
      6 C          -7.2320    7.7880   -0.8920 C.2       1 ACT         0.2045
      7 O          -6.0440    8.0950   -0.9580 O.2       1 ACT        -0.3944
      8 CB         -8.3700    9.6550    0.2570 C.3       1 ACT         0.0400
      9 CG         -9.1210   10.0390    1.5460 C.ar      1 ACT        -0.0004
     10 CD1       -10.5190    9.9000    1.6640 C.ar      1 ACT        -0.0239
     11 CD2        -8.3640   10.4920    2.6000 C.ar      1 ACT        -0.0239
     12 CE1       -11.1980   10.2020    2.8700 C.ar      1 ACT         0.0115
     13 CE2        -9.0390   10.7760    3.7940 C.ar      1 ACT         0.0115
     14 CZ        -10.4190   10.6810    3.9390 C.ar      1 ACT         0.1728
     15 OH        -10.8740   11.0270    5.2180 O.3       1 ACT        -0.2040
     16 P         -12.3520   10.6820    5.6980 P.3       1 ACT         0.1348
     17 O1P       -13.3120   11.7540    5.1280 O.co2     1 ACT        -0.6653
     18 O2P       -12.6700    9.2380    5.3670 O.co2     1 ACT        -0.6653
     19 O3P       -12.2600   10.8720    7.2540 O.co2     1 ACT        -0.6653
     20 O          -5.7030    7.4870   -4.6350 O.2       1 ACT        -0.3419
     21 CAO        -8.2110    3.4420   -3.2480 C.3       1 ACT        -0.0531
     22 CAP        -7.3920    3.4140   -1.8870 C.3       1 ACT        -0.0531
     23 CAQ        -9.0920    4.6730   -3.3540 C.3       1 ACT        -0.0516
     24 CAR        -6.4180    4.5520   -1.5960 C.3       1 ACT        -0.0516
     25 CAS        -8.4030    5.9290   -3.9250 C.3       1 ACT        -0.0199
     26 CAT        -6.1690    5.6180   -2.6910 C.3       1 ACT        -0.0199
     27 N          -7.9350    7.1360   -1.8330 N.am      1 ACT        -0.2738
     28 C          -6.7090    7.6910   -3.8710 C.2       1 ACT         0.2267
     29 CA         -7.3250    6.5890   -3.0470 C.3       1 ACT         0.1331
     30 N          -7.4010    8.8360   -3.8310 N.am      1 ACT        -0.2608
     31 CA         -6.9860   10.0110   -4.5670 C.3       1 ACT         0.1474
     32 C          -6.2660   11.0090   -3.6720 C.2       1 ACT         0.2017
     33 O          -6.1950   12.1670   -4.0750 O.2       1 ACT        -0.3945
     34 CB         -8.2000   10.6410   -5.3250 C.3       1 ACT         0.0774
     35 CG         -9.2470   11.2750   -4.3600 C.2       1 ACT         0.1781
     36 OD1        -9.3130   10.8650   -3.1780 O.2       1 ACT        -0.3970
     37 ND2       -10.0140   12.1970   -4.8870 N.am      1 ACT        -0.3007
     38 N          -5.7320   10.5940   -2.4830 N.am      1 ACT        -0.2988
     39 H1         -5.8186    7.5307    3.5311 H         1 ACT         0.0467
     40 H2         -6.5765    5.9381    3.8712 H         1 ACT         0.0467
     41 H3         -7.2904    7.4372    4.5565 H         1 ACT         0.0467
     42 H4         -6.2107    8.3495    1.5722 H         1 ACT         0.1885
     43 H5         -8.9187    7.5591    0.4376 H         1 ACT         0.0840
     44 H6         -9.0148    9.8279   -0.6172 H         1 ACT         0.0584
     45 H7         -7.4553   10.2587    0.1631 H         1 ACT         0.0584
     46 H8        -11.0891    9.5530    0.8098 H         1 ACT         0.0703
     47 H9         -7.2917   10.6237    2.5111 H         1 ACT         0.0703
     48 H10       -12.2697   10.0699    2.9649 H         1 ACT         0.0736
     49 H11        -8.4539   11.0868    4.6519 H         1 ACT         0.0736
     50 H12        -8.8458    2.5451   -3.2994 H         1 ACT         0.0265
     51 H13        -7.5025    3.4385   -4.0894 H         1 ACT         0.0265
     52 H14        -6.8111    2.4799   -1.8775 H         1 ACT         0.0265
     53 H15        -8.1256    3.3979   -1.0676 H         1 ACT         0.0265
     54 H16        -9.4597    4.9157   -2.3461 H         1 ACT         0.0265
     55 H17        -9.9434    4.4266   -4.0055 H         1 ACT         0.0265
     56 H18        -5.4454    4.0938   -1.3636 H         1 ACT         0.0265
     57 H19        -6.7952    5.0817   -0.7088 H         1 ACT         0.0265
     58 H20        -9.1840    6.6802   -4.1139 H         1 ACT         0.0277
     59 H21        -7.9294    5.6453   -4.8764 H         1 ACT         0.0277
     60 H22        -5.8986    5.0816   -3.6125 H         1 ACT         0.0277
     61 H23        -5.3180    6.2318   -2.3608 H         1 ACT         0.0277
     62 H24        -8.9190    7.0189   -1.6985 H         1 ACT         0.1839
     63 H25        -8.2310    8.8810   -3.2750 H         1 ACT         0.1891
     64 H26        -6.2628    9.6835   -5.3284 H         1 ACT         0.0828
     65 H27        -8.6946    9.8541   -5.9133 H         1 ACT         0.0551
     66 H28        -7.8253   11.4235   -6.0012 H         1 ACT         0.0551
     67 H29       -10.7094   12.6485   -4.3279 H         1 ACT         0.1814
     68 H30        -9.9041   12.4494   -5.8484 H         1 ACT         0.1814
     69 H31        -5.2582   11.2473   -1.8925 H         1 ACT         0.1815
     70 H32        -5.8154    9.6373   -2.2042 H         1 ACT         0.1815
@<TRIPOS>BOND
     1    1    2 2  
     2    1    3 1  
     3    4    1 am 
     4    5    4 1  
     5    6    5 1  
     6    5    8 1  
     7    6    7 2  
     8   27    6 am 
     9    8    9 1  
    10    9   10 ar 
    11    9   11 ar 
    12   10   12 ar 
    13   11   13 ar 
    14   12   14 ar 
    15   13   14 ar 
    16   14   15 1  
    17   15   16 1  
    18   16   17 ar 
    19   16   18 ar 
    20   16   19 ar 
    21   28   20 2  
    22   22   21 1  
    23   23   21 1  
    24   24   22 1  
    25   25   23 1  
    26   26   24 1  
    27   29   25 1  
    28   29   26 1  
    29   29   27 1  
    30   28   29 1  
    31   28   30 am 
    32   30   31 1  
    33   31   32 1  
    34   31   34 1  
    35   32   33 2  
    36   32   38 am 
    37   34   35 1  
    38   35   36 2  
    39   35   37 am 
    40    3   39 1  
    41    3   40 1  
    42    3   41 1  
    43    4   42 1  
    44    5   43 1  
    45    8   44 1  
    46    8   45 1  
    47   10   46 1  
    48   11   47 1  
    49   12   48 1  
    50   13   49 1  
    51   21   50 1  
    52   21   51 1  
    53   22   52 1  
    54   22   53 1  
    55   23   54 1  
    56   23   55 1  
    57   24   56 1  
    58   24   57 1  
    59   25   58 1  
    60   25   59 1  
    61   26   60 1  
    62   26   61 1  
    63   27   62 1  
    64   30   63 1  
    65   31   64 1  
    66   34   65 1  
    67   34   66 1  
    68   37   67 1  
    69   37   68 1  
    70   38   69 1  
    71   38   70 1  
@<TRIPOS>SUBSTRUCTURE
     1 ACT         1

