### 
### Created by X-TOOL on Wed Dec 13 14:20:10 2017
### 

@<TRIPOS>MOLECULE
5jxn_ligand
   62    62     1     0     0
SMALL
GAST_HUCK


@<TRIPOS>ATOM
      1 C1         16.2690   41.5360  -10.6620 C.ar      1 MOL        -0.0578
      2 C2         17.5310   41.1590  -11.1060 C.ar      1 MOL        -0.0685
      3 C3         17.7060   40.5370  -12.3610 C.ar      1 MOL        -0.0687
      4 C7         13.7110   41.7890  -11.0040 C.3       1 MOL         0.1113
      5 C9         12.7510   41.0420   -8.9200 C.2       1 MOL         0.3229
      6 C12        12.0670   40.3110   -6.7070 C.3       1 MOL         0.1132
      7 C19         9.4080   38.1850   -1.2390 C.3       1 MOL        -0.0429
      8 C20         9.7280   38.5970    0.2310 C.3       1 MOL        -0.0625
      9 C21         9.2500   36.6570   -1.3680 C.3       1 MOL        -0.0625
     10 C22         8.9790   39.5320   -3.9440 C.2       1 MOL         0.1977
     11 C27         6.5470   43.5710   -3.6000 C.3       1 MOL        -0.0606
     12 O15        12.6370   37.6500   -6.2420 O.co2     1 MOL        -0.6057
     13 P13        11.5760   38.6980   -6.0340 P.3       1 MOL         0.0870
     14 C6         15.1270   41.3320  -11.4450 C.ar      1 MOL        -0.0130
     15 C4         16.5590   40.3450  -13.1470 C.ar      1 MOL        -0.0685
     16 C5         15.2960   40.7510  -12.6980 C.ar      1 MOL        -0.0578
     17 N16        11.3960   39.1000   -4.3370 N.am      1 MOL        -0.2736
     18 C17        10.1750   38.6650   -3.6470 C.3       1 MOL         0.1228
     19 C18        10.5110   38.7420   -2.1460 C.3       1 MOL        -0.0137
     20 O23         7.8540   39.0330   -3.9380 O.2       1 MOL        -0.3950
     21 N24         9.2110   40.8460   -4.1230 N.am      1 MOL        -0.2851
     22 C25         8.0940   41.7450   -4.4200 C.3       1 MOL         0.0335
     23 C26         7.5220   42.4390   -3.1840 C.3       1 MOL        -0.0239
     24 C28         8.5810   43.0160   -2.2060 C.3       1 MOL        -0.0515
     25 C29         8.0600   44.2540   -1.4420 C.3       1 MOL        -0.0650
     26 O14        10.2250   38.2960   -6.6120 O.co2     1 MOL        -0.6057
     27 N11        12.7680   40.0880   -7.9690 N.am      1 MOL        -0.2448
     28 O10        12.0460   42.0380   -8.8210 O.2       1 MOL        -0.3774
     29 O8         13.1340   40.7590  -10.1650 O.3       1 MOL        -0.2506
     30 H1         16.1669   41.9986   -9.6870 H         1 MOL         0.0557
     31 H2         18.3949   41.3457  -10.4783 H         1 MOL         0.0599
     32 H3         18.6848   40.2210  -12.7033 H         1 MOL         0.0559
     33 H4         13.0782   41.9425  -11.8905 H         1 MOL         0.0776
     34 H5         13.7844   42.7296  -10.4385 H         1 MOL         0.0776
     35 H6         12.7332   40.8229   -5.9971 H         1 MOL         0.0743
     36 H7         11.1736   40.9284   -6.8820 H         1 MOL         0.0743
     37 H8          8.4536   38.6465   -1.5326 H         1 MOL         0.0298
     38 H9          8.9468   38.2063    0.8996 H         1 MOL         0.0232
     39 H10         9.7596   39.6940    0.3058 H         1 MOL         0.0232
     40 H11        10.7032   38.1812    0.5243 H         1 MOL         0.0232
     41 H12         9.0254   36.3986   -2.4134 H         1 MOL         0.0232
     42 H13         8.4273   36.3175   -0.7216 H         1 MOL         0.0232
     43 H14        10.1845   36.1645   -1.0612 H         1 MOL         0.0232
     44 H15         5.7934   43.1694   -4.2934 H         1 MOL         0.0233
     45 H16         7.1096   44.3757   -4.0959 H         1 MOL         0.0233
     46 H17         6.0464   43.9708   -2.7058 H         1 MOL         0.0233
     47 H18        16.6524   39.8741  -14.1189 H         1 MOL         0.0599
     48 H19        14.4334   40.6099  -13.3391 H         1 MOL         0.0557
     49 H20        12.1055   39.6115   -3.8522 H         1 MOL         0.1669
     50 H21         9.9394   37.6294   -3.9331 H         1 MOL         0.0753
     51 H22        11.4317   38.1676   -1.9662 H         1 MOL         0.0311
     52 H23        10.6790   39.7964   -1.8813 H         1 MOL         0.0311
     53 H24        10.1413   41.2062   -4.0535 H         1 MOL         0.1851
     54 H25         7.2918   41.1589   -4.8922 H         1 MOL         0.0522
     55 H26         8.4454   42.5167   -5.1207 H         1 MOL         0.0522
     56 H27         6.9481   41.6817   -2.6299 H         1 MOL         0.0317
     57 H28         9.4734   43.3047   -2.7808 H         1 MOL         0.0266
     58 H29         8.8504   42.2378   -1.4768 H         1 MOL         0.0266
     59 H30         8.8441   44.6237   -0.7649 H         1 MOL         0.0230
     60 H31         7.1711   43.9763   -0.8566 H         1 MOL         0.0230
     61 H32         7.7940   45.0432   -2.1606 H         1 MOL         0.0230
     62 H33        13.2584   39.2308   -8.1263 H         1 MOL         0.1884
@<TRIPOS>BOND
     1    1    2 ar 
     2   14    1 ar 
     3    2    3 ar 
     4   15    3 ar 
     5    4   14 1  
     6   29    4 1  
     7   27    5 am 
     8    5   28 2  
     9    5   29 1  
    10   13    6 1  
    11    6   27 1  
    12    7    8 1  
    13    7    9 1  
    14   19    7 1  
    15   10   18 1  
    16   10   20 2  
    17   21   10 am 
    18   23   11 1  
    19   13   12 ar 
    20   17   13 am 
    21   13   26 ar 
    22   14   16 ar 
    23   16   15 ar 
    24   18   17 1  
    25   18   19 1  
    26   22   21 1  
    27   22   23 1  
    28   23   24 1  
    29   24   25 1  
    30    1   30 1  
    31    2   31 1  
    32    3   32 1  
    33    4   33 1  
    34    4   34 1  
    35    6   35 1  
    36    6   36 1  
    37    7   37 1  
    38    8   38 1  
    39    8   39 1  
    40    8   40 1  
    41    9   41 1  
    42    9   42 1  
    43    9   43 1  
    44   11   44 1  
    45   11   45 1  
    46   11   46 1  
    47   15   47 1  
    48   16   48 1  
    49   17   49 1  
    50   18   50 1  
    51   19   51 1  
    52   19   52 1  
    53   21   53 1  
    54   22   54 1  
    55   22   55 1  
    56   23   56 1  
    57   24   57 1  
    58   24   58 1  
    59   25   59 1  
    60   25   60 1  
    61   25   61 1  
    62   27   62 1  
@<TRIPOS>SUBSTRUCTURE
     1 MOL         1

