### 
### Created by X-TOOL on Fri Nov 18 15:55:18 2016
### 

@<TRIPOS>MOLECULE
3iqu_ligand
   97    96     1     0     0
SMALL
GAST_HUCK


@<TRIPOS>ATOM
      1 N          -9.3840   -5.9010   15.5660 N.4       1 GLN         0.2380
      2 CA         -9.5800   -7.0640   14.6800 C.3       1 GLN         0.0671
      3 C         -10.7580   -7.8880   15.1960 C.2       1 GLN         0.2269
      4 O         -10.8040   -8.2760   16.4060 O.2       1 GLN        -0.3907
      5 CB         -8.3120   -7.9410   14.5980 C.3       1 GLN         0.0247
      6 CG         -8.4740   -9.0930   13.5610 C.3       1 GLN         0.0443
      7 CD         -7.2360   -9.9810   13.4660 C.2       1 GLN         0.1738
      8 OE1        -6.1280   -9.5090   13.9230 O.2       1 GLN        -0.3973
      9 NE2        -7.3570  -11.2960   12.8920 N.am      1 GLN        -0.3009
     10 N         -11.7320   -8.1540   14.3200 N.am      1 GLN        -0.2610
     11 CA        -12.8760   -9.0040   14.7140 C.3       1 GLN         0.1312
     12 C         -12.5330  -10.4360   14.3710 C.2       1 GLN         0.2040
     13 O         -11.6160  -10.7210   13.5750 O.2       1 GLN        -0.3944
     14 CB        -14.2020   -8.5550   14.0460 C.3       1 GLN        -0.0092
     15 CG        -14.9610   -7.3550   14.7030 C.3       1 GLN        -0.0156
     16 CD        -16.2170   -6.8650   13.9510 C.3       1 GLN         0.0627
     17 NE        -17.1970   -7.9590   13.7610 N.pl3     1 GLN        -0.2723
     18 CZ        -18.0970   -8.3500   14.6370 C.cat     1 GLN         0.2882
     19 NH1       -18.1940   -7.7780   15.8080 N.pl3     1 GLN        -0.2849
     20 NH2       -18.8810   -9.3810   14.3310 N.pl3     1 GLN        -0.2849
     21 N         -13.2690  -11.3890   14.9610 N.am      1 GLN        -0.2616
     22 CA        -13.1760  -12.7630   14.5580 C.3       1 GLN         0.1539
     23 C         -13.6320  -12.8900   13.1030 C.2       1 GLN         0.2063
     24 O         -14.5540  -12.2000   12.6940 O.2       1 GLN        -0.3943
     25 CB        -14.0250  -13.6320   15.4230 C.3       1 GLN         0.0843
     26 OG        -13.5420  -13.6770   16.7870 O.3       1 GLN        -0.3903
     27 N         -12.9580  -13.7720   12.3490 N.am      1 GLN        -0.2613
     28 CA        -13.2700  -13.9940   10.9530 C.3       1 GLN         0.1565
     29 C         -14.2460  -15.1260   10.7860 C.2       1 GLN         0.2065
     30 O         -14.0320  -16.2050   11.3070 O.2       1 GLN        -0.3943
     31 CB        -11.9630  -14.3460   10.1900 C.3       1 GLN         0.0924
     32 OG1       -11.0080  -13.3090   10.3330 O.3       1 GLN        -0.3874
     33 CG2       -12.2580  -14.5810    8.7610 C.3       1 GLN        -0.0346
     34 N         -15.2780  -14.8670   10.0040 N.am      1 GLN        -0.2612
     35 CA        -16.2390  -15.8700    9.5880 C.3       1 GLN         0.1586
     36 CB        -17.6140  -15.5820   10.1080 C.3       1 GLN         0.1184
     37 OG        -18.0100  -14.2970    9.5690 O.3       1 GLN        -0.2714
     38 C         -16.2400  -15.9650    8.0640 C.2       1 GLN         0.2061
     39 O         -15.6140  -15.1290    7.4120 O.2       1 GLN        -0.3943
     40 P         -19.4270  -13.6790    9.9900 P.3       1 GLN         0.2010
     41 O1P       -19.3910  -13.3510   11.4650 O.co2     1 GLN        -0.5537
     42 O2P       -20.4700  -14.7070    9.6760 O.co2     1 GLN        -0.5537
     43 O3P       -19.5220  -12.4340    9.1420 O.co2     1 GLN        -0.5537
     44 N         -16.9210  -16.9470    7.5160 N.am      1 GLN        -0.2669
     45 CA        -16.9830  -17.0930    6.0950 C.3       1 GLN         0.1198
     46 C         -18.4170  -17.4810    5.6310 C.2       1 GLN         0.0626
     47 O         -19.1610  -18.0810    6.3030 O.co2     1 GLN        -0.5665
     48 CB        -16.0350  -18.1190    5.5780 C.3       1 GLN         0.0869
     49 OG1       -15.8260  -17.9310    4.1640 O.3       1 GLN        -0.3880
     50 CG2       -16.6700  -19.5700    5.9830 C.3       1 GLN        -0.0352
     51 OXT       -18.7260  -17.2020    4.4600 O.co2     1 GLN        -0.5665
     52 H1         -8.6077   -5.3514   15.2322 H         1 GLN         0.2015
     53 H2         -9.1914   -6.2206   16.5024 H         1 GLN         0.2015
     54 H3        -10.2189   -5.3362   15.5688 H         1 GLN         0.2015
     55 H4         -9.8152   -6.6995   13.6692 H         1 GLN         0.1100
     56 H5         -8.1160   -8.3778   15.5883 H         1 GLN         0.0370
     57 H6         -7.4611   -7.3106   14.3004 H         1 GLN         0.0370
     58 H7         -8.6666   -8.6514   12.5721 H         1 GLN         0.0506
     59 H8         -9.3310   -9.7153   13.8579 H         1 GLN         0.0506
     60 H9         -6.5537  -11.8877   12.8239 H         1 GLN         0.1814
     61 H10        -8.2443  -11.6176   12.5615 H         1 GLN         0.1814
     62 H11       -11.6868   -7.7768   13.3950 H         1 GLN         0.1884
     63 H12       -13.0077   -8.9269   15.8034 H         1 GLN         0.0800
     64 H13       -14.8831   -9.4188   14.0481 H         1 GLN         0.0313
     65 H14       -13.9711   -8.2726   13.0082 H         1 GLN         0.0313
     66 H15       -14.2598   -6.5106   14.7757 H         1 GLN         0.0301
     67 H16       -15.2703   -7.6628   15.7127 H         1 GLN         0.0301
     68 H17       -15.9161   -6.4796   12.9657 H         1 GLN         0.0689
     69 H18       -16.6894   -6.0588   14.5314 H         1 GLN         0.0689
     70 H19       -17.1715   -8.4592   12.8610 H         1 GLN         0.2642
     71 H20       -18.9054   -8.0985   16.4804 H         1 GLN         0.2615
     72 H21       -17.5590   -7.0067   16.0586 H         1 GLN         0.2615
     73 H22       -18.8034   -9.8308   13.4077 H         1 GLN         0.2615
     74 H23       -19.5654   -9.7291   15.0175 H         1 GLN         0.2615
     75 H24       -13.8963  -11.1367   15.6978 H         1 GLN         0.1884
     76 H25       -12.1292  -13.0907   14.6410 H         1 GLN         0.0823
     77 H26       -14.0234  -14.6523   15.0119 H         1 GLN         0.0606
     78 H27       -15.0521  -13.2382   15.4228 H         1 GLN         0.0606
     79 H28       -13.5456  -12.8000   17.1521 H         1 GLN         0.2097
     80 H29       -12.2141  -14.2942   12.7661 H         1 GLN         0.1884
     81 H30       -13.7066  -13.0763   10.5320 H         1 GLN         0.0826
     82 H31       -11.5442  -15.2684   10.6186 H         1 GLN         0.0639
     83 H32       -10.2170  -13.5412    9.8609 H         1 GLN         0.2101
     84 H33       -11.3269  -14.8292    8.2304 H         1 GLN         0.0257
     85 H34       -12.6985  -13.6730    8.3234 H         1 GLN         0.0257
     86 H35       -12.9680  -15.4157    8.6656 H         1 GLN         0.0257
     87 H36       -15.4035  -13.9288    9.6814 H         1 GLN         0.1884
     88 H37       -15.9206  -16.8406    9.9962 H         1 GLN         0.0827
     89 H38       -17.6017  -15.5430   11.2072 H         1 GLN         0.0662
     90 H39       -18.3145  -16.3627    9.7766 H         1 GLN         0.0662
     91 H40       -17.4019  -17.6004    8.1006 H         1 GLN         0.1876
     92 H41       -16.7196  -16.1232    5.6476 H         1 GLN         0.0752
     93 H42       -15.0629  -18.0083    6.0807 H         1 GLN         0.0632
     94 H43       -15.4646  -17.0659    4.0107 H         1 GLN         0.2100
     95 H44       -16.0086  -20.3726    5.6247 H         1 GLN         0.0256
     96 H45       -17.6619  -19.6783    5.5200 H         1 GLN         0.0256
     97 H46       -16.7667  -19.6355    7.0768 H         1 GLN         0.0256
@<TRIPOS>BOND
     1    1    2 1  
     2    2    3 1  
     3    2    5 1  
     4    3    4 2  
     5    3   10 am 
     6    5    6 1  
     7    6    7 1  
     8    7    8 2  
     9    7    9 am 
    10   10   11 1  
    11   11   12 1  
    12   11   14 1  
    13   12   13 2  
    14   12   21 am 
    15   14   15 1  
    16   15   16 1  
    17   16   17 1  
    18   17   18 ar 
    19   18   19 ar 
    20   18   20 ar 
    21   21   22 1  
    22   22   23 1  
    23   22   25 1  
    24   23   24 2  
    25   23   27 am 
    26   25   26 1  
    27   27   28 1  
    28   28   29 1  
    29   28   31 1  
    30   29   30 2  
    31   29   34 am 
    32   31   32 1  
    33   31   33 1  
    34   34   35 1  
    35   35   36 1  
    36   35   38 1  
    37   36   37 1  
    38   37   40 1  
    39   38   39 2  
    40   38   44 am 
    41   40   41 ar 
    42   40   42 ar 
    43   40   43 ar 
    44   44   45 1  
    45   45   46 1  
    46   45   48 1  
    47   46   47 ar 
    48   46   51 ar 
    49   48   49 1  
    50   48   50 1  
    51    1   52 1  
    52    1   53 1  
    53    1   54 1  
    54    2   55 1  
    55    5   56 1  
    56    5   57 1  
    57    6   58 1  
    58    6   59 1  
    59    9   60 1  
    60    9   61 1  
    61   10   62 1  
    62   11   63 1  
    63   14   64 1  
    64   14   65 1  
    65   15   66 1  
    66   15   67 1  
    67   16   68 1  
    68   16   69 1  
    69   17   70 1  
    70   19   71 1  
    71   19   72 1  
    72   20   73 1  
    73   20   74 1  
    74   21   75 1  
    75   22   76 1  
    76   25   77 1  
    77   25   78 1  
    78   26   79 1  
    79   27   80 1  
    80   28   81 1  
    81   31   82 1  
    82   32   83 1  
    83   33   84 1  
    84   33   85 1  
    85   33   86 1  
    86   34   87 1  
    87   35   88 1  
    88   36   89 1  
    89   36   90 1  
    90   44   91 1  
    91   45   92 1  
    92   48   93 1  
    93   49   94 1  
    94   50   95 1  
    95   50   96 1  
    96   50   97 1  
@<TRIPOS>SUBSTRUCTURE
     1 GLN         1

