### 
### Created by X-TOOL on Fri Nov 18 18:01:03 2016
### 

@<TRIPOS>MOLECULE
4zek_ligand
   33    33     1     0     0
SMALL
GAST_HUCK


@<TRIPOS>ATOM
      1 CAA       -13.3670  -26.2370   21.8030 C.3       1 LAH        -0.0338
      2 CAL       -14.8510  -26.0020   22.0710 C.3       1 LAH         0.0889
      3 CAB       -15.2140  -25.7370   23.4990 C.3       1 LAH        -0.0338
      4 OAJ       -15.6860  -26.9100   21.4320 O.3       1 LAH        -0.2514
      5 PAQ       -16.6860  -26.4640   20.3100 P.3       1 LAH         0.2560
      6 OAG       -17.8670  -27.4020   20.3190 O.co2     1 LAH        -0.6177
      7 OAC       -17.1490  -25.0690   20.5760 O.co2     1 LAH        -0.6177
      8 OAK       -15.9970  -26.4420   18.8850 O.3       1 LAH        -0.2430
      9 CBO       -15.8420  -27.5880   18.0160 C.3       1 LAH         0.1728
     10 CBM       -14.4510  -27.9270   17.8610 C.3       1 LAH         0.1191
     11 O14       -13.8700  -28.3960   19.1450 O.3       1 LAH        -0.3860
     12 CBL       -14.1440  -28.8610   16.8420 C.3       1 LAH         0.1073
     13 O10       -14.5300  -30.1940   17.2210 O.3       1 LAH        -0.3868
     14 CBN       -14.8340  -28.5570   15.5280 C.3       1 LAH         0.0792
     15 OAX       -16.2020  -28.2330   15.7100 O.3       1 LAH        -0.3459
     16 C8        -16.4390  -27.2340   16.6730 C.3       1 LAH         0.1905
     17 OAH       -17.7920  -27.0330   16.7710 O.3       1 LAH        -0.3646
     18 H1        -12.7735  -25.4825   22.3400 H         1 LAH         0.0258
     19 H2        -13.1721  -26.1564   20.7234 H         1 LAH         0.0258
     20 H3        -13.0858  -27.2414   22.1524 H         1 LAH         0.0258
     21 H4        -15.0602  -25.0468   21.5673 H         1 LAH         0.0651
     22 H5        -16.3002  -25.5827   23.5786 H         1 LAH         0.0258
     23 H6        -14.6891  -24.8362   23.8497 H         1 LAH         0.0258
     24 H7        -14.9195  -26.5973   24.1179 H         1 LAH         0.0258
     25 H8        -16.3767  -28.4488   18.4439 H         1 LAH         0.0735
     26 H9        -13.9388  -26.9921   17.5896 H         1 LAH         0.0652
     27 H10       -14.3403  -29.1663   19.4414 H         1 LAH         0.2100
     28 H11       -13.0562  -28.8360   16.6808 H         1 LAH         0.0643
     29 H12       -14.3123  -30.7969   16.5199 H         1 LAH         0.2100
     30 H13       -14.7618  -29.4401   14.8761 H         1 LAH         0.0587
     31 H14       -14.3279  -27.7056   15.0495 H         1 LAH         0.0587
     32 H15       -15.9694  -26.3007   16.3289 H         1 LAH         0.0940
     33 H16       -18.1320  -26.7573   15.9278 H         1 LAH         0.2126
@<TRIPOS>BOND
     1    1    2 1  
     2    2    3 1  
     3    2    4 1  
     4    4    5 1  
     5    5    6 ar 
     6    5    7 ar 
     7    5    8 1  
     8    8    9 1  
     9    9   10 1  
    10    9   16 1  
    11   10   11 1  
    12   10   12 1  
    13   12   13 1  
    14   12   14 1  
    15   14   15 1  
    16   15   16 1  
    17   16   17 1  
    18    1   18 1  
    19    1   19 1  
    20    1   20 1  
    21    2   21 1  
    22    3   22 1  
    23    3   23 1  
    24    3   24 1  
    25    9   25 1  
    26   10   26 1  
    27   11   27 1  
    28   12   28 1  
    29   13   29 1  
    30   14   30 1  
    31   14   31 1  
    32   16   32 1  
    33   17   33 1  
@<TRIPOS>SUBSTRUCTURE
     1 LAH         1

