### 
### Created by X-TOOL on Wed Dec 13 14:18:16 2017
### 

@<TRIPOS>MOLECULE
5el9_ligand
   21    21     1     0     0
SMALL
GAST_HUCK


@<TRIPOS>ATOM
      1 N1        -39.5990  -19.0700    8.0580 N.2       1 MOL        -0.1901
      2 C3        -38.6420  -20.8590    7.1550 C.2       1 MOL         0.1278
      3 N2        -39.3080  -20.3900    8.2230 N.pl3     1 MOL        -0.1756
      4 C8        -41.2810  -22.0640   11.0250 C.3       1 MOL         0.0483
      5 C7        -41.1010  -21.3510    9.6760 C.3       1 MOL         0.0998
      6 C6        -39.6520  -21.1360    9.4120 C.3       1 MOL         0.1031
      7 C5        -39.0850  -18.8000    6.8520 C.2       1 MOL         0.0618
      8 O10       -38.9700  -23.4420   11.3490 O.co2     1 MOL        -0.5622
      9 P9        -40.4460  -23.6910   11.1670 P.3       1 MOL         0.0604
     10 O11       -40.6920  -24.4710    9.9050 O.co2     1 MOL        -0.5622
     11 O12       -41.0340  -24.3250   12.4170 O.co2     1 MOL        -0.5622
     12 O13       -41.7820  -20.0840    9.6770 O.3       1 MOL        -0.3875
     13 N4        -38.4950  -19.8700    6.2750 N.2       1 MOL        -0.2870
     14 H1        -38.2818  -21.8790    7.0294 H         1 MOL         0.1361
     15 H2        -42.3579  -22.2191   11.1867 H         1 MOL         0.0477
     16 H3        -40.8827  -21.4074   11.8126 H         1 MOL         0.0477
     17 H4        -41.5227  -21.9824    8.8801 H         1 MOL         0.0637
     18 H5        -39.2333  -20.5976   10.2750 H         1 MOL         0.0669
     19 H6        -39.1783  -22.1256    9.3322 H         1 MOL         0.0669
     20 H7        -39.1370  -17.8182    6.3836 H         1 MOL         0.0863
     21 H8        -42.7065  -20.2228    9.8456 H         1 MOL         0.2100
@<TRIPOS>BOND
     1    3    1 1  
     2    1    7 2  
     3    3    2 1  
     4    2   13 2  
     5    6    3 1  
     6    5    4 1  
     7    4    9 1  
     8    5    6 1  
     9    5   12 1  
    10    7   13 1  
    11    9    8 ar 
    12    9   10 ar 
    13    9   11 ar 
    14    2   14 1  
    15    4   15 1  
    16    4   16 1  
    17    5   17 1  
    18    6   18 1  
    19    6   19 1  
    20    7   20 1  
    21   12   21 1  
@<TRIPOS>SUBSTRUCTURE
     1 MOL         1

