### 
### Created by X-TOOL on Fri Nov 18 14:19:12 2016
### 

@<TRIPOS>MOLECULE
2hzy_ligand
   23    22     1     0     0
SMALL
GAST_HUCK


@<TRIPOS>ATOM
      1 O2         54.4340   29.5330   47.8160 O.co2     1 DHJ        -0.5690
      2 C3         55.0610   29.7370   48.9060 C.2       1 DHJ         0.0363
      3 O4         54.5280   29.4830   49.9590 O.co2     1 DHJ        -0.5690
      4 C1         56.4730   30.2600   49.1020 C.3       1 DHJ         0.0162
      5 C7         57.2380   30.4650   48.0510 C.3       1 DHJ         0.0270
      6 P1         58.8620   31.0580   48.1020 P.3       1 DHJ         0.0042
      7 O6         59.7210   30.5200   49.2200 O.co2     1 DHJ        -0.6174
      8 O7         59.2300   30.8350   46.6950 O.co2     1 DHJ        -0.6174
      9 C6         58.7350   32.8540   48.3400 C.3       1 DHJ         0.0877
     10 C5         59.8670   33.4640   47.5680 C.2       1 DHJ         0.1353
     11 O5         60.9950   33.6070   48.0850 O.2       1 DHJ        -0.3875
     12 C4         59.5660   33.9290   46.1460 C.3       1 DHJ         0.0751
     13 C2         60.5810   33.3540   45.1470 C.2       1 DHJ         0.0530
     14 O1         61.8110   33.3710   45.3720 O.co2     1 DHJ        -0.5660
     15 O3         60.1060   32.9020   44.0820 O.co2     1 DHJ        -0.5660
     16 H1         56.9968   29.5357   49.7431 H         1 DHJ         0.0446
     17 H2         56.3881   31.2219   49.6289 H         1 DHJ         0.0446
     18 H3         56.6857   31.1785   47.4219 H         1 DHJ         0.0484
     19 H4         57.2973   29.4936   47.5384 H         1 DHJ         0.0484
     20 H5         58.8244   33.1037   49.4075 H         1 DHJ         0.0699
     21 H6         57.7716   33.2215   47.9569 H         1 DHJ         0.0699
     22 H7         59.6107   35.0275   46.1107 H         1 DHJ         0.0658
     23 H8         58.5567   33.5938   45.8650 H         1 DHJ         0.0658
@<TRIPOS>BOND
     1    1    2 ar 
     2    2    3 ar 
     3    2    4 1  
     4    4    5 1  
     5    5    6 1  
     6    6    7 ar 
     7    6    8 ar 
     8    6    9 1  
     9    9   10 1  
    10   10   11 2  
    11   10   12 1  
    12   12   13 1  
    13   13   14 ar 
    14   13   15 ar 
    15    4   16 1  
    16    4   17 1  
    17    5   18 1  
    18    5   19 1  
    19    9   20 1  
    20    9   21 1  
    21   12   22 1  
    22   12   23 1  
@<TRIPOS>SUBSTRUCTURE
     1 DHJ         1

