### 
### Created by X-TOOL on Fri Nov 18 15:07:42 2016
### 

@<TRIPOS>MOLECULE
3ewj_ligand
   67    66     1     0     0
SMALL
GAST_HUCK


@<TRIPOS>ATOM
      1 N1          6.5310    6.3770   24.2830 N.am      1 INN        -0.2648
      2 C2          8.7440    7.8560   27.0060 C.3       1 INN        -0.0625
      3 O2          7.5910    3.5340   24.8280 O.2       1 INN        -0.3944
      4 N3          5.5410    0.1230   24.8790 N.am      1 INN        -0.2800
      5 C4          5.8230    7.4310   24.6900 C.2       1 INN         0.1836
      6 O4          6.9090   13.1260   24.7830 O.3       1 INN        -0.2717
      7 C5          5.9410    5.0680   23.9950 C.3       1 INN         0.1357
      8 C6          6.1480    4.8660   22.4520 C.3       1 INN         0.0026
      9 C8          7.6810    4.7620   22.1510 C.3       1 INN        -0.0558
     10 C9          5.4190    3.5640   21.9940 C.3       1 INN        -0.0558
     11 C10         6.3850    3.8700   24.8360 C.2       1 INN         0.2044
     12 C11         5.5250    2.0650   26.3980 C.3       1 INN         0.1280
     13 C12         4.9150    2.1880   27.8200 C.3       1 INN        -0.0244
     14 N           6.1910   11.9410   24.8010 N.am      1 INN        -0.1641
     15 C           6.7370   11.0420   23.9950 C.2       1 INN         0.2013
     16 O           7.8820   11.1920   23.5010 O.2       1 INN        -0.3968
     17 C0          5.9530    9.7320   23.8530 C.3       1 INN         0.0585
     18 CA          6.5980    8.7190   24.8820 C.3       1 INN         0.0657
     19 CB          6.5690    9.1910   26.3960 C.3       1 INN        -0.0288
     20 C1          7.2720    8.2360   27.3820 C.3       1 INN        -0.0443
     21 C3          7.2520    8.8330   28.7920 C.3       1 INN        -0.0625
     22 O1          4.6240    7.4580   24.9000 O.2       1 INN        -0.3965
     23 C7          5.5750    6.0820   21.6690 C.3       1 INN        -0.0558
     24 N2          5.3710    3.2510   25.5380 N.am      1 INN        -0.2640
     25 C13         4.8220    0.9930   25.5920 C.2       1 INN         0.2015
     26 O3          3.6100    0.9740   25.6070 O.2       1 INN        -0.3945
     27 C14         4.8870   -0.9040   24.0950 C.3       1 INN         0.0708
     28 C15         4.5640   -0.3800   22.6760 C.3       1 INN        -0.0148
     29 N4          4.9590   -1.3820   21.6790 N.4       1 INN         0.2200
     30 H1          7.5184    6.4863   24.1682 H         1 INN         0.1883
     31 H2          9.1530    7.1757   27.7675 H         1 INN         0.0232
     32 H3          9.3580    8.7676   26.9610 H         1 INN         0.0232
     33 H4          8.7550    7.3577   26.0254 H         1 INN         0.0232
     34 H5          6.5393    0.1810   24.8864 H         1 INN         0.1853
     35 H6          6.9197   13.4751   23.8995 H         1 INN         0.2490
     36 H7          4.8603    5.1607   24.1780 H         1 INN         0.0805
     37 H8          7.8338    4.6203   21.0709 H         1 INN         0.0237
     38 H9          8.1046    3.9059   22.6966 H         1 INN         0.0237
     39 H10         8.1817    5.6867   22.4739 H         1 INN         0.0237
     40 H11         4.3440    3.6500   22.2109 H         1 INN         0.0237
     41 H12         5.8344    2.7013   22.5355 H         1 INN         0.0237
     42 H13         5.5647    3.4231   20.9129 H         1 INN         0.0237
     43 H14         6.5929    1.8256   26.5084 H         1 INN         0.0797
     44 H15         5.0851    1.2531   28.3740 H         1 INN         0.0277
     45 H16         3.8340    2.3755   27.7404 H         1 INN         0.0277
     46 H17         5.3936    3.0225   28.3534 H         1 INN         0.0277
     47 H18         5.3696   11.7849   25.3496 H         1 INN         0.2216
     48 H19         6.0424    9.3431   22.8279 H         1 INN         0.0529
     49 H20         4.8917    9.8947   24.0922 H         1 INN         0.0529
     50 H21         7.6508    8.5583   24.6068 H         1 INN         0.0563
     51 H22         5.5177    9.2888   26.7044 H         1 INN         0.0296
     52 H23         7.0624   10.1721   26.4586 H         1 INN         0.0296
     53 H24         6.6897    7.3029   27.3960 H         1 INN         0.0297
     54 H25         7.7551    8.1459   29.4882 H         1 INN         0.0232
     55 H26         6.2103    8.9819   29.1124 H         1 INN         0.0232
     56 H27         7.7763    9.8000   28.7883 H         1 INN         0.0232
     57 H28         6.0881    7.0002   21.9910 H         1 INN         0.0237
     58 H29         4.4977    6.1738   21.8714 H         1 INN         0.0237
     59 H30         5.7341    5.9319   20.5910 H         1 INN         0.0237
     60 H31         4.4537    3.6407   25.4559 H         1 INN         0.1883
     61 H32         3.9518   -1.1991   24.5933 H         1 INN         0.0573
     62 H33         5.5516   -1.7770   24.0157 H         1 INN         0.0573
     63 H34         5.1173    0.5535   22.4958 H         1 INN         0.0833
     64 H35         3.4840   -0.1879   22.5938 H         1 INN         0.0833
     65 H36         4.7476   -1.0383   20.7553 H         1 INN         0.1995
     66 H37         4.4520   -2.2376   21.8433 H         1 INN         0.1995
     67 H38         5.9487   -1.5582   21.7535 H         1 INN         0.1995
@<TRIPOS>BOND
     1    5    1 am 
     2    1    7 1  
     3   20    2 1  
     4   11    3 2  
     5   25    4 am 
     6    4   27 1  
     7   18    5 1  
     8    5   22 2  
     9   14    6 1  
    10    7    8 1  
    11    7   11 1  
    12    8    9 1  
    13    8   10 1  
    14    8   23 1  
    15   11   24 am 
    16   12   13 1  
    17   24   12 1  
    18   12   25 1  
    19   15   14 am 
    20   15   16 2  
    21   17   15 1  
    22   18   17 1  
    23   19   18 1  
    24   19   20 1  
    25   20   21 1  
    26   25   26 2  
    27   27   28 1  
    28   28   29 1  
    29    1   30 1  
    30    2   31 1  
    31    2   32 1  
    32    2   33 1  
    33    4   34 1  
    34    6   35 1  
    35    7   36 1  
    36    9   37 1  
    37    9   38 1  
    38    9   39 1  
    39   10   40 1  
    40   10   41 1  
    41   10   42 1  
    42   12   43 1  
    43   13   44 1  
    44   13   45 1  
    45   13   46 1  
    46   14   47 1  
    47   17   48 1  
    48   17   49 1  
    49   18   50 1  
    50   19   51 1  
    51   19   52 1  
    52   20   53 1  
    53   21   54 1  
    54   21   55 1  
    55   21   56 1  
    56   23   57 1  
    57   23   58 1  
    58   23   59 1  
    59   24   60 1  
    60   27   61 1  
    61   27   62 1  
    62   28   63 1  
    63   28   64 1  
    64   29   65 1  
    65   29   66 1  
    66   29   67 1  
@<TRIPOS>SUBSTRUCTURE
     1 INN         1

