### 
### Created by X-TOOL on Fri Nov 18 17:46:48 2016
### 

@<TRIPOS>MOLECULE
4n7u_ligand
   28    27     1     0     0
SMALL
GAST_HUCK


@<TRIPOS>ATOM
      1 OAE        21.8930    1.9230  145.2130 O.co2     1 MOL        -0.5889
      2 PAN        21.0250    0.5720  145.0120 P.3       1 MOL         0.2049
      3 OAF        21.2170    0.1880  143.4530 O.co2     1 MOL        -0.5889
      4 OAB        19.5990    0.7820  145.3620 O.co2     1 MOL        -0.5889
      5 OAL        21.7750   -0.6010  145.8190 O.3       1 MOL        -0.1830
      6 PAO        21.4760   -0.9740  147.3720 P.3       1 MOL         0.1915
      7 OAG        22.0110   -2.4830  147.6070 O.co2     1 MOL        -0.5582
      8 OAC        20.0520   -0.8360  147.7750 O.co2     1 MOL        -0.5582
      9 CAK        22.4830    0.0120  148.3160 C.3       1 MOL         0.0478
     10 CAI        23.8940   -0.5490  148.2850 C.3       1 MOL        -0.0341
     11 CAH        24.6310    0.3370  149.2600 C.3       1 MOL        -0.0469
     12 CAM        24.7480   -0.3910  150.5930 C.3       1 MOL        -0.0206
     13 CAA        24.2450   -1.8270  150.7100 C.3       1 MOL        -0.0603
     14 CAJ        25.4380    0.2500  151.7720 C.3       1 MOL         0.0468
     15 OAD        24.7260    1.4530  152.0450 O.3       1 MOL        -0.3947
     16 H          22.1157    0.0292  149.3527 H         1 MOL         0.0493
     17 H          22.4836    1.0344  147.9102 H         1 MOL         0.0493
     18 H          24.3275   -0.4742  147.2768 H         1 MOL         0.0281
     19 H          23.9099   -1.5985  148.6141 H         1 MOL         0.0281
     20 H          24.0753    1.2761  149.3992 H         1 MOL         0.0269
     21 H          25.6355    0.5595  148.8709 H         1 MOL         0.0269
     22 H          23.7753    0.0057  150.9193 H         1 MOL         0.0320
     23 H          24.4085   -2.1904  151.7353 H         1 MOL         0.0233
     24 H          24.7934   -2.4664  150.0026 H         1 MOL         0.0233
     25 H          23.1706   -1.8594  150.4766 H         1 MOL         0.0233
     26 H          26.4857    0.4753  151.5241 H         1 MOL         0.0560
     27 H          25.4033   -0.4195  152.6441 H         1 MOL         0.0560
     28 H          25.1257    1.8953  152.7847 H         1 MOL         0.2094
@<TRIPOS>BOND
     1    1    2 ar 
     2    2    3 ar 
     3    2    4 ar 
     4    2    5 1  
     5    5    6 1  
     6    6    7 ar 
     7    6    8 ar 
     8    6    9 1  
     9    9   10 1  
    10   10   11 1  
    11   11   12 1  
    12   12   13 1  
    13   12   14 1  
    14   14   15 1  
    15    9   16 1  
    16    9   17 1  
    17   10   18 1  
    18   10   19 1  
    19   11   20 1  
    20   11   21 1  
    21   12   22 1  
    22   13   23 1  
    23   13   24 1  
    24   13   25 1  
    25   14   26 1  
    26   14   27 1  
    27   15   28 1  
@<TRIPOS>SUBSTRUCTURE
     1 MOL         1

