### 
### Created by X-TOOL on Fri Nov 18 14:55:00 2016
### 

@<TRIPOS>MOLECULE
2p53_ligand
   34    34     1     0     0
SMALL
GAST_HUCK


@<TRIPOS>ATOM
      1 C1        -35.3460   15.5200  -12.1780 C.3       1 NNG         0.1789
      2 C2        -34.8400   15.5980  -10.7170 C.3       1 NNG         0.1129
      3 C3        -34.8400   17.0790  -10.2370 C.3       1 NNG         0.1077
      4 C4        -34.0620   17.9690  -11.2290 C.3       1 NNG         0.1116
      5 C5        -34.6320   17.7620  -12.6620 C.3       1 NNG         0.1176
      6 C6        -33.8240   18.6020  -13.6700 C.3       1 NNG         0.1071
      7 P7        -35.2350   13.9130   -8.6440 P.3       1 NNG         0.0588
      8 C8        -36.5800   13.1020   -7.8030 C.3       1 NNG         0.0174
      9 N2        -35.7510   14.8260   -9.8860 N.am      1 NNG        -0.2867
     10 O1        -36.7210   15.9220  -12.2530 O.3       1 NNG        -0.3654
     11 O3        -34.2160   17.1660   -8.9520 O.3       1 NNG        -0.3871
     12 O4        -34.2250   19.3460  -10.8500 O.3       1 NNG        -0.3865
     13 O5        -34.5380   16.3620  -13.0400 O.3       1 NNG        -0.3410
     14 O6        -32.4360   18.2770  -13.5480 O.3       1 NNG        -0.2734
     15 O71       -34.3570   12.8430   -9.2120 O.co2     1 NNG        -0.6072
     16 O72       -34.3380   14.8530   -7.6980 O.co2     1 NNG        -0.6072
     17 P         -31.5820   19.1540  -14.6070 P.3       1 NNG         0.2008
     18 O1P       -30.1640   19.1130  -14.2030 O.co2     1 NNG        -0.5537
     19 O2P       -31.7400   18.5280  -16.0800 O.co2     1 NNG        -0.5537
     20 O3P       -32.0920   20.6860  -14.6280 O.co2     1 NNG        -0.5537
     21 H1        -35.2631   14.4789  -12.5232 H         1 NNG         0.0928
     22 H2        -33.8228   15.1849  -10.6484 H         1 NNG         0.0588
     23 H3        -35.8782   17.4354  -10.1658 H         1 NNG         0.0641
     24 H4        -32.9952   17.7015  -11.2113 H         1 NNG         0.0647
     25 H5        -35.6858   18.0769  -12.6822 H         1 NNG         0.0650
     26 H6        -33.9712   19.6715  -13.4591 H         1 NNG         0.0639
     27 H7        -34.1655   18.3793  -14.6917 H         1 NNG         0.0639
     28 H8        -36.1830   12.4983   -6.9736 H         1 NNG         0.0443
     29 H9        -37.1135   12.4489   -8.5093 H         1 NNG         0.0443
     30 H10       -37.2739   13.8580   -7.4068 H         1 NNG         0.0443
     31 H11       -36.7302   14.8582  -10.0861 H         1 NNG         0.1641
     32 H12       -37.0258   15.8384  -13.1489 H         1 NNG         0.2125
     33 H13       -34.6886   16.6207   -8.3341 H         1 NNG         0.2100
     34 H14       -35.1484   19.5694  -10.8619 H         1 NNG         0.2100
@<TRIPOS>BOND
     1    2    1 1  
     2    1   10 1  
     3    1   13 1  
     4    2    3 1  
     5    9    2 1  
     6    3    4 1  
     7    3   11 1  
     8    4    5 1  
     9    4   12 1  
    10    5    6 1  
    11   13    5 1  
    12    6   14 1  
    13    7    8 1  
    14    7    9 am 
    15    7   15 ar 
    16    7   16 ar 
    17   14   17 1  
    18   17   18 ar 
    19   17   19 ar 
    20   17   20 ar 
    21    1   21 1  
    22    2   22 1  
    23    3   23 1  
    24    4   24 1  
    25    5   25 1  
    26    6   26 1  
    27    6   27 1  
    28    8   28 1  
    29    8   29 1  
    30    8   30 1  
    31    9   31 1  
    32   10   32 1  
    33   11   33 1  
    34   12   34 1  
@<TRIPOS>SUBSTRUCTURE
     1 NNG         1

