### 
### Created by X-TOOL on Fri Nov 18 13:08:48 2016
### 

@<TRIPOS>MOLECULE
1ksn_ligand
   60    62     1     0     0
SMALL
GAST_HUCK


@<TRIPOS>ATOM
      1 C1          6.6430    0.2470   17.8810 C.ar      1 FXV         0.0264
      2 C2          7.3750    0.8760   18.9420 C.ar      1 FXV         0.0856
      3 C3          8.7800    0.5740   19.0640 C.ar      1 FXV         0.0264
      4 C4          9.4060   -0.3310   18.1450 C.ar      1 FXV         0.0770
      5 N1          8.6940   -0.9280   17.1340 N.ar      1 FXV        -0.1334
      6 C6          7.3370   -0.6420   17.0070 C.ar      1 FXV         0.0770
      7 C7          6.7400    3.9330   21.2570 C.ar      1 FXV         0.0183
      8 C8          5.3630    3.6970   21.6850 C.ar      1 FXV         0.1134
      9 C9          4.6930    2.5190   21.1940 C.ar      1 FXV         0.0183
     10 C10         5.3450    1.6040   20.3140 C.ar      1 FXV         0.0186
     11 C11         6.6950    1.8250   19.8820 C.ar      1 FXV         0.0831
     12 C12         7.3700    2.9970   20.3700 C.ar      1 FXV         0.0186
     13 C13         4.6220    4.5930   22.5660 C.2       1 FXV         0.2552
     14 N14         5.0990    5.8520   22.6160 N.am      1 FXV        -0.2716
     15 C15         4.4840    6.8990   23.3920 C.3       1 FXV         0.0622
     16 C16         3.8060    7.8740   22.4050 C.3       1 FXV        -0.0393
     17 C17         5.5890    7.5560   24.3010 C.3       1 FXV         0.0921
     18 C18         4.9640    8.6890   25.1360 C.2       1 FXV         0.2408
     19 O19         3.8600    8.2640   25.8080 O.3       1 FXV        -0.2798
     20 C20         6.8610    8.0770   23.4910 C.3       1 FXV         0.0041
     21 C23         8.4840    7.4690   25.4770 C.ar      1 FXV        -0.0549
     22 C24         9.7170    7.6990   26.2280 C.ar      1 FXV         0.0192
     23 C25        10.6090    8.7590   25.7890 C.ar      1 FXV        -0.0635
     24 C26        10.2870    9.5570   24.6450 C.ar      1 FXV        -0.0686
     25 C27         9.0690    9.3220   23.9130 C.ar      1 FXV        -0.0602
     26 C28         8.1480    8.2810   24.3060 C.ar      1 FXV        -0.0404
     27 C29        10.0580    6.8890   27.4000 C.cat     1 FXV         0.2340
     28 N30        11.3210    6.7490   27.8130 N.pl3     1 FXV        -0.2722
     29 N31         9.0740    6.2750   28.0810 N.pl3     1 FXV        -0.2722
     30 O32         5.3900    9.7910   25.1720 O.2       1 FXV        -0.3698
     31 O33         3.6160    4.2310   23.2050 O.2       1 FXV        -0.3479
     32 C34         3.0950    9.1320   26.6480 C.3       1 FXV         0.0658
     33 O1          9.2870   -1.7890   16.2600 O.2       1 FXV        -0.1649
     34 H1          5.5854    0.4428   17.7460 H         1 FXV         0.1001
     35 H2          9.3646    1.0328   19.8532 H         1 FXV         0.1001
     36 H3         10.4627   -0.5484   18.2504 H         1 FXV         0.0958
     37 H4          6.7818   -1.1172   16.2064 H         1 FXV         0.0958
     38 H5          7.2800    4.8058   21.6057 H         1 FXV         0.0873
     39 H6          3.6715    2.3238   21.4999 H         1 FXV         0.0873
     40 H7          4.8111    0.7271   19.9661 H         1 FXV         0.0963
     41 H8          8.3914    3.1802   20.0567 H         1 FXV         0.0963
     42 H9          5.9201    6.0707   22.0888 H         1 FXV         0.1860
     43 H10         3.7096    6.4702   24.0450 H         1 FXV         0.0584
     44 H11         3.3250    8.6885   22.9664 H         1 FXV         0.0254
     45 H12         3.0472    7.3343   21.8194 H         1 FXV         0.0254
     46 H13         4.5629    8.2938   21.7261 H         1 FXV         0.0254
     47 H14         5.9446    6.7812   24.9961 H         1 FXV         0.0599
     48 H15         6.5961    9.0423   23.0350 H         1 FXV         0.0455
     49 H16         7.0777    7.3447   22.6994 H         1 FXV         0.0455
     50 H17         7.8068    6.6836   25.7926 H         1 FXV         0.0556
     51 H18        11.5274    8.9473   26.3333 H         1 FXV         0.0559
     52 H19        10.9635   10.3424   24.3279 H         1 FXV         0.0599
     53 H20         8.8392    9.9379   23.0511 H         1 FXV         0.0557
     54 H21        11.5314    6.1731   28.6407 H         1 FXV         0.3181
     55 H22        12.0842    7.2170   27.3037 H         1 FXV         0.3181
     56 H23         8.0958    6.3741   27.7741 H         1 FXV         0.3181
     57 H24         9.2986    5.7057   28.9095 H         1 FXV         0.3181
     58 H25         2.2541    8.5728   27.0840 H         1 FXV         0.0577
     59 H26         2.7074    9.9713   26.0519 H         1 FXV         0.0577
     60 H27         3.7349    9.5197   27.4544 H         1 FXV         0.0577
@<TRIPOS>BOND
     1    1    6 ar 
     2    1    2 ar 
     3    2   11 1  
     4    2    3 ar 
     5    3    4 ar 
     6    4    5 ar 
     7    5   33 2  
     8    5    6 ar 
     9   11   12 ar 
    10   11   10 ar 
    11   10    9 ar 
    12    9    8 ar 
    13    8   13 1  
    14    8    7 ar 
    15    7   12 ar 
    16   13   31 2  
    17   13   14 am 
    18   14   15 1  
    19   15   17 1  
    20   15   16 1  
    21   17   20 1  
    22   17   18 1  
    23   18   30 2  
    24   18   19 1  
    25   19   32 1  
    26   20   26 1  
    27   26   25 ar 
    28   26   21 ar 
    29   21   22 ar 
    30   22   27 1  
    31   22   23 ar 
    32   23   24 ar 
    33   24   25 ar 
    34   27   29 ar 
    35   27   28 ar 
    36    1   34 1  
    37    3   35 1  
    38    4   36 1  
    39    6   37 1  
    40    7   38 1  
    41    9   39 1  
    42   10   40 1  
    43   12   41 1  
    44   14   42 1  
    45   15   43 1  
    46   16   44 1  
    47   16   45 1  
    48   16   46 1  
    49   17   47 1  
    50   20   48 1  
    51   20   49 1  
    52   21   50 1  
    53   23   51 1  
    54   24   52 1  
    55   25   53 1  
    56   28   54 1  
    57   28   55 1  
    58   29   56 1  
    59   29   57 1  
    60   32   58 1  
    61   32   59 1  
    62   32   60 1  
@<TRIPOS>SUBSTRUCTURE
     1 FXV         1

