### 
### Created by X-TOOL on Fri Nov 18 14:35:33 2016
### 

@<TRIPOS>MOLECULE
2i19_ligand
   25    25     1     0     0
SMALL
GAST_HUCK


@<TRIPOS>ATOM
      1 C5         14.8860   41.0290   45.4800 C.ar      1 MOL        -0.0542
      2 C4         15.2430   42.1030   46.4130 C.ar      1 MOL        -0.0162
      3 C6         14.1020   41.3210   44.4440 C.ar      1 MOL        -0.0480
      4 C7         13.6100   42.6960   44.2740 C.ar      1 MOL        -0.0042
      5 N2         13.8980   43.6020   45.1240 N.ar      1 MOL        -0.2854
      6 C3         14.7620   43.3470   46.2640 C.ar      1 MOL         0.1111
      7 N1         15.1100   44.2570   47.1470 N.pl3     1 MOL        -0.3050
      8 C2         15.9890   43.9320   48.2730 C.3       1 MOL         0.0597
      9 C1         16.8540   45.1500   48.6600 C.3       1 MOL         0.1204
     10 P1         17.4050   45.0530   50.3980 P.3       1 MOL         0.0798
     11 O1         16.2630   44.5600   51.2210 O.co2     1 MOL        -0.5611
     12 O2         18.5520   44.1090   50.5110 O.co2     1 MOL        -0.5611
     13 O3         17.8140   46.4040   50.8660 O.co2     1 MOL        -0.5611
     14 P2         18.2930   45.4380   47.5670 P.3       1 MOL         0.0798
     15 O4         19.1630   44.2360   47.4770 O.co2     1 MOL        -0.5611
     16 O5         17.8000   45.7980   46.1990 O.co2     1 MOL        -0.5611
     17 O6         19.0930   46.5720   48.1380 O.co2     1 MOL        -0.5611
     18 H1         15.2523   40.0199   45.6305 H         1 MOL         0.0699
     19 H2         15.9094   41.8874   47.2403 H         1 MOL         0.0610
     20 H3         13.8287   40.5510   43.7316 H         1 MOL         0.0597
     21 H4         12.9952   42.9426   43.4160 H         1 MOL         0.0781
     22 H5         14.7569   45.2192   47.0448 H         1 MOL         0.1803
     23 H6         16.6471   43.0979   47.9881 H         1 MOL         0.0548
     24 H7         15.3751   43.6363   49.1365 H         1 MOL         0.0548
     25 H8         16.2054   46.0339   48.5699 H         1 MOL         0.0698
@<TRIPOS>BOND
     1    1    2 ar 
     2    1    3 ar 
     3    2    6 ar 
     4    3    4 ar 
     5    4    5 ar 
     6    5    6 ar 
     7    6    7 1  
     8    7    8 1  
     9    8    9 1  
    10    9   10 1  
    11    9   14 1  
    12   10   11 ar 
    13   10   12 ar 
    14   10   13 ar 
    15   14   15 ar 
    16   14   16 ar 
    17   14   17 ar 
    18    1   18 1  
    19    2   19 1  
    20    3   20 1  
    21    4   21 1  
    22    7   22 1  
    23    8   23 1  
    24    8   24 1  
    25    9   25 1  
@<TRIPOS>SUBSTRUCTURE
     1 MOL         1

