### 
### Created by X-TOOL on Fri Nov 18 14:51:35 2016
### 

@<TRIPOS>MOLECULE
2e91_ligand
   22    22     1     0     0
SMALL
GAST_HUCK


@<TRIPOS>ATOM
      1 O17        28.9780   43.4940    5.0900 O.co2     1 ZOL        -0.5593
      2 P14        29.5310   44.9490    4.6960 P.3       1 ZOL         0.1130
      3 O16        28.9690   45.3700    3.2410 O.co2     1 ZOL        -0.5593
      4 O15        31.0030   45.0270    4.8460 O.co2     1 ZOL        -0.5593
      5 C8         28.6380   46.1140    5.8410 C.3       1 ZOL         0.2328
      6 P9         26.8200   45.7440    5.6160 P.3       1 ZOL         0.1130
      7 O10        26.5750   44.2930    6.2630 O.co2     1 ZOL        -0.5593
      8 O11        26.0330   46.8350    6.4970 O.co2     1 ZOL        -0.5593
      9 O12        26.4830   45.7670    4.1690 O.co2     1 ZOL        -0.5593
     10 O13        28.9140   47.4520    5.4150 O.3       1 ZOL        -0.3574
     11 C7         29.1060   45.8650    7.2780 C.3       1 ZOL         0.1185
     12 N15        28.4500   46.7580    8.2490 N.pl3     1 ZOL        -0.2464
     13 C16        28.3730   48.0790    8.1550 C.2       1 ZOL         0.0976
     14 N17        27.7660   48.4950    9.2680 N.2       1 ZOL        -0.3302
     15 C18        27.4810   47.4440   10.0340 C.2       1 ZOL        -0.0236
     16 C19        27.9080   46.3560    9.3960 C.2       1 ZOL         0.0365
     17 H1         28.6077   47.5688    4.5233 H         1 ZOL         0.2134
     18 H2         30.1928   46.0275    7.3280 H         1 ZOL         0.0685
     19 H3         28.8782   44.8231    7.5474 H         1 ZOL         0.0685
     20 H4         28.7326   48.6988    7.3350 H         1 ZOL         0.1215
     21 H5         26.9886   47.4695   11.0050 H         1 ZOL         0.0444
     22 H6         27.8285   45.3283    9.7475 H         1 ZOL         0.0860
@<TRIPOS>BOND
     1    1    2 ar 
     2    2    3 ar 
     3    2    4 ar 
     4    2    5 1  
     5    5    6 1  
     6    5   10 1  
     7    5   11 1  
     8    6    7 ar 
     9    6    8 ar 
    10    6    9 ar 
    11   11   12 1  
    12   12   13 1  
    13   12   16 1  
    14   13   14 2  
    15   14   15 1  
    16   15   16 2  
    17   10   17 1  
    18   11   18 1  
    19   11   19 1  
    20   13   20 1  
    21   15   21 1  
    22   16   22 1  
@<TRIPOS>SUBSTRUCTURE
     1 ZOL         1

