### 
### Created by X-TOOL on Fri Nov 18 15:49:08 2016
### 

@<TRIPOS>MOLECULE
3djq_ligand
   36    37     1     0     0
SMALL
GAST_HUCK


@<TRIPOS>ATOM
      1 N1         29.7440   39.5150    6.6750 N.am      1 UDP        -0.1592
      2 C2         29.5600   38.5460    5.7010 C.2       1 UDP         0.3328
      3 N3         29.4210   38.9070    4.3720 N.am      1 UDP        -0.1865
      4 C4         29.4610   40.2310    3.9890 C.2       1 UDP         0.1822
      5 C5         29.6350   41.2120    4.9650 C.2       1 UDP         0.0062
      6 C6         29.7110   40.8400    6.3090 C.2       1 UDP         0.0591
      7 O2         29.5330   37.3600    6.0100 O.2       1 UDP        -0.3815
      8 O4         29.3350   40.5240    2.7970 O.2       1 UDP        -0.4124
      9 C1'        29.8760   39.1140    8.1010 C.3       1 UDP         0.2059
     10 C2'        31.3200   38.8960    8.5430 C.3       1 UDP         0.1387
     11 O2'        31.4590   37.5900    9.0710 O.3       1 UDP        -0.3836
     12 C3'        31.5760   39.9600    9.5980 C.3       1 UDP         0.1149
     13 C4'        30.2050   40.5130    9.9520 C.3       1 UDP         0.1189
     14 O4'        29.3050   40.1040    8.9350 O.3       1 UDP        -0.3363
     15 O3'        32.1860   39.4280   10.7510 O.3       1 UDP        -0.3864
     16 C5'        30.2340   42.0330   10.1230 C.3       1 UDP         0.1132
     17 O5'        29.6140   42.7130    9.0500 O.3       1 UDP        -0.2436
     18 PA         30.2710   44.0450    8.4120 P.3       1 UDP         0.3276
     19 O1A        30.1030   44.0570    6.9400 O.co2     1 UDP        -0.5556
     20 O2A        31.7130   44.1540    8.7480 O.co2     1 UDP        -0.5556
     21 O3A        29.4130   45.2640    9.0200 O.3       1 UDP        -0.1548
     22 PB         29.4210   45.6410   10.5870 P.3       1 UDP         0.2069
     23 O1B        28.5390   44.6880   11.3020 O.co2     1 UDP        -0.5891
     24 O2B        28.8940   47.0180   10.7320 O.co2     1 UDP        -0.5891
     25 O3B        30.7910   45.5620   11.1420 O.co2     1 UDP        -0.5891
     26 H1         29.2897   38.1974    3.6797 H         1 UDP         0.2259
     27 H2         29.7111   42.2606    4.6811 H         1 UDP         0.0258
     28 H3         29.7446   41.6103    7.0781 H         1 UDP         0.1178
     29 H4         29.3276   38.1705    8.2388 H         1 UDP         0.0997
     30 H5         32.0107   39.0241    7.6965 H         1 UDP         0.0676
     31 H6         32.3582   37.4549    9.3460 H         1 UDP         0.2101
     32 H7         32.2163   40.7532    9.1847 H         1 UDP         0.0648
     33 H8         29.8813   40.0727   10.9066 H         1 UDP         0.0651
     34 H9         31.6450   38.7298   11.1006 H         1 UDP         0.2100
     35 H10        31.2822   42.3602   10.1886 H         1 UDP         0.0648
     36 H11        29.7098   42.2927   11.0545 H         1 UDP         0.0648
@<TRIPOS>BOND
     1    1    2 am 
     2    1    6 1  
     3    1    9 1  
     4    2    3 am 
     5    2    7 2  
     6    3    4 am 
     7    4    5 1  
     8    4    8 2  
     9    5    6 2  
    10    9   10 1  
    11    9   14 1  
    12   10   11 1  
    13   10   12 1  
    14   12   13 1  
    15   12   15 1  
    16   13   14 1  
    17   13   16 1  
    18   16   17 1  
    19   17   18 1  
    20   18   19 ar 
    21   18   20 ar 
    22   18   21 1  
    23   21   22 1  
    24   22   23 ar 
    25   22   24 ar 
    26   22   25 ar 
    27    3   26 1  
    28    5   27 1  
    29    6   28 1  
    30    9   29 1  
    31   10   30 1  
    32   11   31 1  
    33   12   32 1  
    34   13   33 1  
    35   15   34 1  
    36   16   35 1  
    37   16   36 1  
@<TRIPOS>SUBSTRUCTURE
     1 UDP         1

