### 
### Created by X-TOOL on Fri Nov 18 17:50:48 2016
### 

@<TRIPOS>MOLECULE
4lj8_ligand
   39    41     1     0     0
SMALL
GAST_HUCK


@<TRIPOS>ATOM
      1 PB         -5.4690   27.3180   -6.4690 P.3       1 ADP         0.2069
      2 O1B        -5.2880   26.5110   -7.7480 O.co2     1 ADP        -0.5891
      3 O2B        -4.3320   28.2340   -6.1910 O.co2     1 ADP        -0.5891
      4 O3B        -5.9260   26.4770   -5.3300 O.co2     1 ADP        -0.5891
      5 PA         -7.2280   28.7310   -8.1960 P.3       1 ADP         0.3276
      6 O1A        -7.6600   27.5320   -8.9970 O.co2     1 ADP        -0.5556
      7 O2A        -6.3440   29.7760   -8.7980 O.co2     1 ADP        -0.5556
      8 O3A        -6.6770   28.3250   -6.7330 O.3       1 ADP        -0.1548
      9 O5'        -8.6830   29.2380   -7.8150 O.3       1 ADP        -0.2436
     10 C5'        -8.9000   30.4490   -7.2210 C.3       1 ADP         0.1132
     11 C4'        -9.6170   31.2930   -8.2480 C.3       1 ADP         0.1189
     12 O4'       -10.2800   32.3200   -7.5160 O.3       1 ADP        -0.3364
     13 C3'        -8.6270   31.9740   -9.1940 C.3       1 ADP         0.1149
     14 O3'        -8.8620   31.5930  -10.5420 O.3       1 ADP        -0.3864
     15 C2'        -8.7770   33.4620   -8.9690 C.3       1 ADP         0.1385
     16 O2'        -9.6050   34.1370   -9.9260 O.3       1 ADP        -0.3836
     17 C1'        -9.5220   33.5180   -7.6600 C.3       1 ADP         0.2010
     18 N9         -8.6390   33.6890   -6.4890 N.pl3     1 ADP        -0.1919
     19 C8         -8.4000   32.8260   -5.4760 C.2       1 ADP         0.1123
     20 N7         -7.5720   33.3590   -4.5600 N.2       1 ADP        -0.2958
     21 C5         -7.2900   34.5940   -4.9750 C.ar      1 ADP         0.1045
     22 C6         -6.4810   35.7050   -4.4550 C.ar      1 ADP         0.1298
     23 N6         -5.8070   35.5640   -3.3040 N.pl3     1 ADP        -0.3152
     24 N1         -6.4330   36.8220   -5.1880 N.ar      1 ADP        -0.2698
     25 C2         -7.1140   36.9470   -6.3470 C.ar      1 ADP         0.0533
     26 N3         -7.8670   35.9800   -6.8810 N.ar      1 ADP        -0.2714
     27 C4         -7.9920   34.8070   -6.2380 C.ar      1 ADP         0.1613
     28 H          -7.9434   30.9155   -6.9432 H         1 ADP         0.0648
     29 H          -9.5235   30.3281   -6.3229 H         1 ADP         0.0648
     30 H         -10.3319   30.6824   -8.8191 H         1 ADP         0.0651
     31 H          -7.6029   31.6732   -8.9281 H         1 ADP         0.0648
     32 H          -9.7434   31.8443  -10.7919 H         1 ADP         0.2100
     33 H          -7.7918   33.9482   -8.9149 H         1 ADP         0.0676
     34 H          -9.2367   34.0275  -10.7948 H         1 ADP         0.2101
     35 H         -10.2111   34.3747   -7.6938 H         1 ADP         0.0996
     36 H          -8.8245   31.8253   -5.4101 H         1 ADP         0.1349
     37 H          -5.2402   36.3433   -2.9403 H         1 ADP         0.1820
     38 H          -5.8562   34.6764   -2.7838 H         1 ADP         0.1820
     39 H          -7.0460   37.8899   -6.8775 H         1 ADP         0.0996
@<TRIPOS>BOND
     1    1    2 ar 
     2    1    3 ar 
     3    1    4 ar 
     4    8    1 1  
     5    5    6 ar 
     6    5    7 ar 
     7    5    8 1  
     8    5    9 1  
     9    9   10 1  
    10   10   11 1  
    11   11   12 1  
    12   11   13 1  
    13   12   17 1  
    14   13   14 1  
    15   13   15 1  
    16   15   16 1  
    17   15   17 1  
    18   17   18 1  
    19   18   19 1  
    20   18   27 1  
    21   19   20 2  
    22   20   21 1  
    23   21   22 ar 
    24   21   27 ar 
    25   22   23 1  
    26   22   24 ar 
    27   24   25 ar 
    28   25   26 ar 
    29   26   27 ar 
    30   10   28 1  
    31   10   29 1  
    32   11   30 1  
    33   13   31 1  
    34   14   32 1  
    35   15   33 1  
    36   16   34 1  
    37   17   35 1  
    38   19   36 1  
    39   23   37 1  
    40   23   38 1  
    41   25   39 1  
@<TRIPOS>SUBSTRUCTURE
     1 ADP         1

