### 
### Created by X-TOOL on Fri Nov 18 17:56:58 2016
### 

@<TRIPOS>MOLECULE
4kxn_ligand
   45    48     1     0     0
SMALL
GAST_HUCK


@<TRIPOS>ATOM
      1 C66         4.3010   -7.6150   44.8330 C.2       1 MOL        -0.0685
      2 furan       5.3400   -7.6770   45.6680 C.2       1 MOL        -0.0808
      3 C64         6.4700   -7.6280   44.9650 C.2       1 MOL         0.0670
      4 O63         6.1340   -7.5400   43.6400 O.3       1 MOL        -0.2667
      5 C62         4.7720   -7.5350   43.5940 C.2       1 MOL         0.1176
      6 C61         4.0030   -7.4310   42.2800 C.3       1 MOL         0.0929
      7 N6          3.9390   -5.9980   41.9480 N.pl3     1 MOL        -0.2870
      8 C6          4.7890   -5.4340   41.1010 C.ar      1 MOL         0.1343
      9 N1          5.8450   -6.1170   40.6010 N.ar      1 MOL        -0.2695
     10 C2          6.6940   -5.5670   39.7470 C.ar      1 MOL         0.0533
     11 N3          6.5450   -4.3170   39.3510 N.ar      1 MOL        -0.2713
     12 C4          5.5190   -3.5730   39.8110 C.ar      1 MOL         0.1613
     13 C5          4.6030   -4.1210   40.7010 C.ar      1 MOL         0.1048
     14 N7          3.7070   -3.1840   40.9890 N.2       1 MOL        -0.2957
     15 C8          4.0350   -2.0850   40.3040 C.2       1 MOL         0.1123
     16 N9          5.1410   -2.3160   39.5750 N.pl3     1 MOL        -0.1919
     17 C1'         5.8430   -1.3610   38.6640 C.3       1 MOL         0.2010
     18 O4'         5.0480   -0.1440   38.5880 O.3       1 MOL        -0.3365
     19 C2'         6.0250   -1.8540   37.2070 C.3       1 MOL         0.1385
     20 O2'         7.4110   -1.7970   36.8470 O.3       1 MOL        -0.3836
     21 C3'         5.2570   -0.8550   36.3570 C.3       1 MOL         0.1149
     22 O3'         6.0200   -0.4770   35.2050 O.3       1 MOL        -0.3864
     23 C4'         5.1410    0.3580   37.2690 C.3       1 MOL         0.1182
     24 C5'         3.8080    0.9020   36.8300 C.3       1 MOL         0.1072
     25 O5'         3.2160    1.8740   37.7050 O.3       1 MOL        -0.2734
     26 PA          1.5790    1.7090   37.6270 P.3       1 MOL         0.2008
     27 O2          0.8570    1.3480   38.9800 O.co2     1 MOL        -0.5537
     28 O3          0.8050    2.5340   36.4410 O.co2     1 MOL        -0.5537
     29 O1          1.5460    3.0650   38.2230 O.co2     1 MOL        -0.5537
     30 H           3.2500   -7.6278   45.1180 H         1 MOL         0.0219
     31 H           5.2743   -7.7552   46.7522 H         1 MOL         0.0296
     32 H           7.4802   -7.6534   45.3709 H         1 MOL         0.0854
     33 H           2.9887   -7.8394   42.3995 H         1 MOL         0.0719
     34 H           4.5291   -7.9821   41.4866 H         1 MOL         0.0719
     35 H           3.2116   -5.4158   42.3872 H         1 MOL         0.1884
     36 H           7.5238   -6.1521   39.3674 H         1 MOL         0.0996
     37 H           3.4887   -1.1434   40.3318 H         1 MOL         0.1349
     38 H           6.8337   -1.1411   39.0885 H         1 MOL         0.0996
     39 H           5.6353   -2.8747   37.0793 H         1 MOL         0.0676
     40 H           7.5175   -2.1002   35.9530 H         1 MOL         0.2101
     41 H           4.2731   -1.2467   36.0595 H         1 MOL         0.0648
     42 H           6.8365   -0.0796   35.4838 H         1 MOL         0.2100
     43 H           5.9624    1.0813   37.1590 H         1 MOL         0.0650
     44 H           3.1099    0.0565   36.7418 H         1 MOL         0.0639
     45 H           3.9420    1.3713   35.8442 H         1 MOL         0.0639
@<TRIPOS>BOND
     1    1    2 1  
     2    1    5 2  
     3    2    3 2  
     4    3    4 1  
     5    4    5 1  
     6    5    6 1  
     7    6    7 1  
     8    7    8 1  
     9    8    9 ar 
    10    8   13 ar 
    11    9   10 ar 
    12   10   11 ar 
    13   11   12 ar 
    14   12   13 ar 
    15   12   16 1  
    16   13   14 1  
    17   14   15 2  
    18   15   16 1  
    19   16   17 1  
    20   17   18 1  
    21   17   19 1  
    22   18   23 1  
    23   19   20 1  
    24   19   21 1  
    25   21   22 1  
    26   21   23 1  
    27   23   24 1  
    28   24   25 1  
    29   25   26 1  
    30   26   27 ar 
    31   26   28 ar 
    32   26   29 ar 
    33    1   30 1  
    34    2   31 1  
    35    3   32 1  
    36    6   33 1  
    37    6   34 1  
    38    7   35 1  
    39   10   36 1  
    40   15   37 1  
    41   17   38 1  
    42   19   39 1  
    43   20   40 1  
    44   21   41 1  
    45   22   42 1  
    46   23   43 1  
    47   24   44 1  
    48   24   45 1  
@<TRIPOS>SUBSTRUCTURE
     1 MOL         1

