### 
### Created by X-TOOL on Fri Nov 18 18:02:05 2016
### 

@<TRIPOS>MOLECULE
4cp5_ligand
   40    41     1     0     0
SMALL
GAST_HUCK


@<TRIPOS>ATOM
      1 C          49.3270  -53.0820   77.0330 C.3       1 EOI        -0.0360
      2 N          52.0820  -51.4340   76.8550 N.pl3     1 EOI        -0.2192
      3 O          49.1910  -50.7300   76.9370 O.3       1 EOI        -0.3493
      4 P          48.7200  -48.5920   75.3180 P.3       1 EOI         0.2680
      5 S          47.3530  -47.1410   75.5460 S.3       1 EOI        -0.0245
      6 C1         49.6260  -51.8680   76.1930 C.3       1 EOI         0.0857
      7 N1         53.1950  -50.1670   78.3440 N.2       1 EOI        -0.2958
      8 O1         50.1300  -48.2340   75.4740 O.2       1 EOI        -0.5015
      9 P1         48.4230  -49.9520   72.5150 P.3       1 EOI         0.3748
     10 C2         51.1370  -51.7640   75.7950 C.3       1 EOI         0.0866
     11 N2         53.1360  -53.5830   77.2840 N.ar      1 EOI        -0.2714
     12 O2         48.4330  -49.1050   73.8580 O.3       1 EOI        -0.1136
     13 P2         46.0650  -51.8940   73.1890 P.3       1 EOI         0.2078
     14 C3         52.2720  -50.2030   77.4130 C.2       1 EOI         0.1098
     15 N3         54.7820  -53.4490   79.0470 N.ar      1 EOI        -0.2698
     16 O3         49.7560  -50.5300   72.2400 O.co2     1 EOI        -0.5485
     17 C4         53.6430  -51.4780   78.4050 C.ar      1 EOI         0.1044
     18 N4         55.3050  -51.4930   80.1660 N.pl3     1 EOI        -0.3152
     19 O4         47.8260  -48.9910   71.4870 O.co2     1 EOI        -0.5485
     20 C5         52.9690  -52.2670   77.4880 C.ar      1 EOI         0.1592
     21 O5         47.3040  -51.0080   72.7490 O.3       1 EOI        -0.1473
     22 C6         54.0620  -54.0820   78.1120 C.ar      1 EOI         0.0533
     23 O6         45.7280  -53.0560   72.3150 O.co2     1 EOI        -0.5891
     24 C7         54.5960  -52.1180   79.2230 C.ar      1 EOI         0.1298
     25 O7         44.9310  -50.8540   73.3240 O.co2     1 EOI        -0.5891
     26 C8         48.1060  -49.9540   76.4040 C.3       1 EOI         0.1634
     27 O8         46.5170  -52.3280   74.5930 O.co2     1 EOI        -0.5891
     28 H1         49.6473  -53.9872   76.4963 H         1 EOI         0.0255
     29 H2         48.2459  -53.1352   77.2289 H         1 EOI         0.0255
     30 H3         49.8695  -53.0103   77.9872 H         1 EOI         0.0255
     31 H4         46.4309  -47.5257   75.4122 H         1 EOI         0.1303
     32 H5         49.0397  -51.9299   75.2643 H         1 EOI         0.0622
     33 H6         51.4365  -52.7354   75.3747 H         1 EOI         0.0640
     34 H7         51.2230  -50.9873   75.0208 H         1 EOI         0.0640
     35 H8         51.7046  -49.3241   77.1104 H         1 EOI         0.1348
     36 H9         55.1809  -50.4819   80.3183 H         1 EOI         0.1820
     37 H10        55.9760  -52.0219   80.7412 H         1 EOI         0.1820
     38 H11        54.2555  -55.1439   78.0119 H         1 EOI         0.0996
     39 H12        47.5353  -49.5176   77.2370 H         1 EOI         0.0849
     40 H13        47.4503  -50.6127   75.8156 H         1 EOI         0.0849
@<TRIPOS>BOND
     1    6    1 1  
     2   10    2 1  
     3    2   14 1  
     4    2   20 1  
     5    6    3 1  
     6    3   26 1  
     7    4    5 1  
     8    4    8 2  
     9    4   12 1  
    10   26    4 1  
    11    6   10 1  
    12   14    7 2  
    13    7   17 1  
    14   12    9 1  
    15    9   16 ar 
    16    9   19 ar 
    17    9   21 1  
    18   20   11 ar 
    19   11   22 ar 
    20   21   13 1  
    21   13   23 ar 
    22   13   25 ar 
    23   13   27 ar 
    24   22   15 ar 
    25   15   24 ar 
    26   17   20 ar 
    27   17   24 ar 
    28   24   18 1  
    29    1   28 1  
    30    1   29 1  
    31    1   30 1  
    32    5   31 1  
    33    6   32 1  
    34   10   33 1  
    35   10   34 1  
    36   14   35 1  
    37   18   36 1  
    38   18   37 1  
    39   22   38 1  
    40   26   39 1  
    41   26   40 1  
@<TRIPOS>SUBSTRUCTURE
     1 EOI         1

