2zz1_ligand

Created by X-TOOL on Fri Nov 18 15:26:57 2016
 33 34  0  0  0  0  0  0  0  0999 V2000
   24.5080  -16.0120    8.7490  P 0  0  0  1  0  4
   25.8140  -15.2770    8.9660  O 0  0  0  1  0  1
   23.3180  -15.1050    8.6240  O 0  0  0  1  0  1
   24.5860  -17.0270    7.6270  O 0  0  0  1  0  1
   24.1660  -16.8480   10.1040  O 0  0  0  1  0  2
   25.1930  -17.4770   10.8640  C 0  0  0  3  0  4
   24.4550  -18.1490   12.0310  C 0  0  0  2  0  4
   25.3770  -19.0230   12.7050  O 0  0  0  1  0  2
   23.9190  -17.1700   13.0460  C 0  0  0  2  0  4
   22.8010  -17.8330   13.6960  O 0  0  0  2  0  2
   25.0980  -17.0780   14.0270  C 0  0  0  2  0  4
   24.5910  -16.7320   15.3100  O 0  0  0  2  0  2
   25.6460  -18.5020   14.0210  C 0  0  0  2  0  4
   27.0920  -18.6260   14.2710  N 0  0  0  1  0  3
   27.9870  -17.9120   13.5980  C 0  0  0  1  0  3
   27.6330  -17.1150   12.7080  O 0  0  0  1  0  1
   29.3080  -18.0430   13.8740  N 0  0  0  2  0  3
   29.7620  -18.8800   14.8380  C 0  0  0  1  0  3
   31.0370  -18.9510   15.0200  O 0  0  0  1  0  1
   28.8640  -19.6850   15.5060  C 0  0  0  3  0  4
   27.5010  -19.5470   15.2020  C 0  0  0  1  0  3
   26.6390  -20.2200   15.7890  O 0  0  0  1  0  1
   25.9119  -16.7324   11.2365  H 0  0  0  1  0  1
   25.7223  -18.2259   10.2566  H 0  0  0  1  0  1
   23.6156  -18.7337   11.6265  H 0  0  0  1  0  1
   23.6342  -16.1971   12.6189  H 0  0  0  1  0  1
   22.4264  -17.2532   14.3487  H 0  0  0  1  0  1
   25.8549  -16.3492   13.7015  H 0  0  0  1  0  1
   25.3102  -16.6715   15.9277  H 0  0  0  1  0  1
   25.1111  -19.0901   14.7812  H 0  0  0  1  0  1
   29.9680  -17.5050   13.3496  H 0  0  0  1  0  1
   28.9811  -19.4834   16.5810  H 0  0  0  1  0  1
   29.1416  -20.7285   15.2962  H 0  0  0  1  0  1
  1  2  2  0  0  2
  1  3  2  0  0  2
  1  4  2  0  0  2
  1  5  1  0  0  2
  5  6  1  0  0  2
  6  7  1  0  0  2
  7  8  1  0  0  1
  7  9  1  0  0  1
  8 13  1  0  0  1
  9 10  1  0  0  2
  9 11  1  0  0  1
 11 12  1  0  0  2
 11 13  1  0  0  1
 13 14  1  0  0  2
 14 15  1  0  0  1
 14 21  1  0  0  1
 15 16  2  0  0  2
 15 17  1  0  0  1
 17 18  1  0  0  1
 18 19  2  0  0  2
 18 20  1  0  0  1
 20 21  1  0  0  1
 21 22  2  0  0  2
  6 23  1  0  0  2
  6 24  1  0  0  2
  7 25  1  0  0  2
  9 26  1  0  0  2
 10 27  1  0  0  2
 11 28  1  0  0  2
 12 29  1  0  0  2
 13 30  1  0  0  2
 17 31  1  0  0  2
 20 32  1  0  0  2
 20 33  1  0  0  2
M  END
> <MOLECULAR_FORMULA>
C9H11N2O10P

> <MOLECULAR_WEIGHT>
338.1

> <NUM_HB_ATOMS>
11 

> <NUM_ROTOR>
3  

> <XLOGP2>
-3.80

$$$$
