### 
### Created by X-TOOL on Fri Nov 18 15:26:57 2016
### 

@<TRIPOS>MOLECULE
2zz1_ligand
   33    34     1     0     0
SMALL
GAST_HUCK


@<TRIPOS>ATOM
      1 P          24.5080  -16.0120    8.7490 P.3       1 BMP         0.2008
      2 OP1        25.8140  -15.2770    8.9660 O.co2     1 BMP        -0.5537
      3 OP2        23.3180  -15.1050    8.6240 O.co2     1 BMP        -0.5537
      4 OP3        24.5860  -17.0270    7.6270 O.co2     1 BMP        -0.5537
      5 O5'        24.1660  -16.8480   10.1040 O.3       1 BMP        -0.2734
      6 C5'        25.1930  -17.4770   10.8640 C.3       1 BMP         0.1071
      7 C4'        24.4550  -18.1490   12.0310 C.3       1 BMP         0.1178
      8 O4'        25.3770  -19.0230   12.7050 O.3       1 BMP        -0.3391
      9 C3'        23.9190  -17.1700   13.0460 C.3       1 BMP         0.1145
     10 O3'        22.8010  -17.8330   13.6960 O.3       1 BMP        -0.3864
     11 C2'        25.0980  -17.0780   14.0270 C.3       1 BMP         0.1353
     12 O2'        24.5910  -16.7320   15.3100 O.3       1 BMP        -0.3840
     13 C1'        25.6460  -18.5020   14.0210 C.3       1 BMP         0.1990
     14 N1         27.0920  -18.6260   14.2710 N.am      1 BMP        -0.1334
     15 C2         27.9870  -17.9120   13.5980 C.2       1 BMP         0.3232
     16 O2         27.6330  -17.1150   12.7080 O.2       1 BMP        -0.3825
     17 N3         29.3080  -18.0430   13.8740 N.am      1 BMP        -0.1782
     18 C4         29.7620  -18.8800   14.8380 C.2       1 BMP         0.2246
     19 O4         31.0370  -18.9510   15.0200 O.2       1 BMP        -0.3836
     20 C5         28.8640  -19.6850   15.5060 C.3       1 BMP         0.1366
     21 C6         27.5010  -19.5470   15.2020 C.2       1 BMP         0.2294
     22 O1         26.6390  -20.2200   15.7890 O.2       1 BMP        -0.3833
     23 H1         25.9119  -16.7324   11.2365 H         1 BMP         0.0639
     24 H2         25.7223  -18.2259   10.2566 H         1 BMP         0.0639
     25 H3         23.6156  -18.7337   11.6265 H         1 BMP         0.0650
     26 H4         23.6342  -16.1971   12.6189 H         1 BMP         0.0648
     27 H5         22.4264  -17.2532   14.3487 H         1 BMP         0.2100
     28 H6         25.8549  -16.3492   13.7015 H         1 BMP         0.0672
     29 H7         25.3102  -16.6715   15.9277 H         1 BMP         0.2101
     30 H8         25.1111  -19.0901   14.7812 H         1 BMP         0.0952
     31 H9         29.9680  -17.5050   13.3496 H         1 BMP         0.2265
     32 H10        28.9811  -19.4834   16.5810 H         1 BMP         0.0750
     33 H11        29.1416  -20.7285   15.2962 H         1 BMP         0.0750
@<TRIPOS>BOND
     1    1    2 ar 
     2    1    3 ar 
     3    1    4 ar 
     4    1    5 1  
     5    5    6 1  
     6    6    7 1  
     7    7    8 1  
     8    7    9 1  
     9    8   13 1  
    10    9   10 1  
    11    9   11 1  
    12   11   12 1  
    13   11   13 1  
    14   13   14 1  
    15   14   15 am 
    16   14   21 am 
    17   15   16 2  
    18   15   17 am 
    19   17   18 am 
    20   18   19 2  
    21   18   20 1  
    22   20   21 1  
    23   21   22 2  
    24    6   23 1  
    25    6   24 1  
    26    7   25 1  
    27    9   26 1  
    28   10   27 1  
    29   11   28 1  
    30   12   29 1  
    31   13   30 1  
    32   17   31 1  
    33   20   32 1  
    34   20   33 1  
@<TRIPOS>SUBSTRUCTURE
     1 BMP         1

