4nze_ligand

Created by X-TOOL on Fri Nov 18 17:53:20 2016
110114  0  0  0  0  0  0  0  0999 V2000
   15.2930   -6.5810   10.6120 Cl 0  0  0  1  0  1
   15.5190   -8.1310   11.5830  C 0  0  0  1  0  3
   14.4950   -8.4540   12.9310  S 0  0  0  1  0  2
   16.4340   -9.0880   11.3360  C 0  0  0  2  0  3
   16.3460  -10.1190   12.2340  C 0  0  0  2  0  3
   15.3640   -9.9230   13.1390  C 0  0  0  1  0  3
   14.9620  -10.8280   14.2480  C 0  0  0  1  0  3
   14.3420  -10.4190   15.2700  O 0  0  0  1  0  2
   14.0780  -11.5190   16.0830  N 0  0  0  1  0  2
   15.1130  -12.1460   14.2330  C 0  0  0  2  0  3
   14.5880  -12.5850   15.3930  C 0  0  0  1  0  3
   14.5550  -14.0340   15.8260  C 0  0  0  3  0  4
   13.4630  -14.6640   15.1570  O 0  0  0  1  0  2
   13.6200  -15.8250   14.4390  C 0  0  0  1  0  3
   14.6120  -16.7460   14.7550  C 0  0  0  2  0  3
   14.7250  -17.9040   13.9930  C 0  0  0  2  0  3
   13.8490  -18.1340   12.9310  C 0  0  0  2  0  3
   12.7530  -16.0510   13.3830  C 0  0  0  1  0  3
   11.8330  -15.1070   13.1890  N 0  0  0  2  0  3
   10.5400  -15.3850   13.0290  C 0  0  0  1  0  3
    9.7620  -14.5170   12.0750  C 0  0  0  2  0  4
    8.3660  -14.2680   12.6460  C 0  0  0  3  0  4
    7.2250  -14.5980   11.6860  C 0  0  0  3  0  4
    7.4100  -13.9910   10.3450  N 0  3  0  2  0  4
    6.9340  -12.5920   10.2800  C 0  0  0  2  0  4
    5.5260  -12.4790   10.8450  C 0  0  0  4  0  4
    6.9160  -12.1450    8.8260  C 0  0  0  4  0  4
    8.8010  -14.1140    9.8420  C 0  0  0  3  0  4
    9.6390  -15.0870   10.6720  C 0  0  0  3  0  4
    9.9630  -16.1840   13.7470  O 0  0  0  1  0  1
   12.8560  -17.2040   12.6200  C 0  0  0  1  0  3
   11.9810  -17.4130   11.5820  O 0  0  0  1  0  2
   12.0210  -18.5630   10.7400  C 0  0  0  3  0  4
   10.5830  -19.0530   10.5920  C 0  0  0  3  0  4
   10.2870  -19.7710    9.2800  C 0  0  0  3  0  4
    9.4940  -20.9250    9.5740  O 0  0  0  1  0  2
    8.3190  -21.0470    8.7560  C 0  0  0  2  0  4
    7.5170  -19.8520    8.8860  O 0  0  0  1  0  2
    7.5260  -22.3370    9.0550  C 0  0  0  2  0  4
    7.0860  -22.9720    7.8500  O 0  0  0  1  0  2
    8.1210  -23.3560    6.8940  C 0  0  0  1  0  3
    8.5400  -22.5210    6.1030  O 0  0  0  1  0  1
    8.6070  -24.7760    6.8690  C 0  0  0  4  0  4
    6.2800  -21.9490    9.8520  C 0  0  0  2  0  4
    5.4710  -23.0180   10.3480  O 0  0  0  1  0  2
    4.0850  -22.8010    9.9290  C 0  0  0  1  0  3
    3.3610  -21.5220   10.2510  C 0  0  0  4  0  4
    3.5310  -23.6910    9.3050  O 0  0  0  1  0  1
    6.7610  -20.9630   10.8990  C 0  0  0  2  0  4
    6.0140  -20.9300   12.1140  O 0  0  0  1  0  2
    6.9100  -21.0890   13.2570  C 0  0  0  1  0  3
    8.1550  -21.9190   13.1140  C 0  0  0  4  0  4
    6.6180  -20.5490   14.3110  O 0  0  0  1  0  1
    6.6450  -19.7220   10.0310  C 0  0  0  2  0  4
    6.9010  -18.4060   10.7490  C 0  0  0  3  0  4
    7.8230  -17.6620    9.9590  O 0  0  0  1  0  2
    7.3460  -16.8750    8.8360  C 0  0  0  1  0  3
    8.1250  -16.6450    7.9230  O 0  0  0  1  0  1
    5.9310  -16.3760    8.8610  C 0  0  0  4  0  4
   17.1559   -9.0472   10.5217  H 0  0  0  1  0  1
   16.9931  -10.9948   12.2193  H 0  0  0  1  0  1
   15.5668  -12.7475   13.4467  H 0  0  0  1  0  1
   14.4128  -14.0961   16.9150  H 0  0  0  1  0  1
   15.4982  -14.5285   15.5506  H 0  0  0  1  0  1
   15.2875  -16.5644   15.5831  H 0  0  0  1  0  1
   15.4958  -18.6302   14.2246  H 0  0  0  1  0  1
   13.9405  -19.0407   12.3440  H 0  0  0  1  0  1
   12.1249  -14.1509   13.1624  H 0  0  0  1  0  1
   10.2866  -13.5533   11.9977  H 0  0  0  1  0  1
    8.2900  -13.2050   12.9185  H 0  0  0  1  0  1
    8.2473  -14.8870   13.5475  H 0  0  0  1  0  1
    6.2844  -14.2225   12.1153  H 0  0  0  1  0  1
    7.1658  -15.6905   11.5724  H 0  0  0  1  0  1
    6.8297  -14.5208    9.7136  H 0  0  0  1  0  1
    7.6127  -11.9480   10.8584  H 0  0  0  1  0  1
    5.1908  -11.4329   10.7877  H 0  0  0  1  0  1
    5.5247  -12.8075   11.8948  H 0  0  0  1  0  1
    4.8444  -13.1148   10.2610  H 0  0  0  1  0  1
    6.5631  -11.1048    8.7665  H 0  0  0  1  0  1
    6.2401  -12.7949    8.2509  H 0  0  0  1  0  1
    7.9318  -12.2119    8.4092  H 0  0  0  1  0  1
    9.2767  -13.1227    9.8737  H 0  0  0  1  0  1
    8.7700  -14.4728    8.8026  H 0  0  0  1  0  1
    9.1442  -16.0687   10.7093  H 0  0  0  1  0  1
   10.6377  -15.1965   10.2240  H 0  0  0  1  0  1
   12.6424  -19.3463   11.1985  H 0  0  0  1  0  1
   12.4334  -18.2971    9.7555  H 0  0  0  1  0  1
    9.9150  -18.1821   10.6643  H 0  0  0  1  0  1
   10.3708  -19.7475   11.4182  H 0  0  0  1  0  1
   11.2290  -20.0779    8.8021  H 0  0  0  1  0  1
    9.7345  -19.1011    8.6048  H 0  0  0  1  0  1
    8.6490  -21.1106    7.7086  H 0  0  0  1  0  1
    8.1525  -23.0314    9.6341  H 0  0  0  1  0  1
    9.3801  -24.8853    6.0942  H 0  0  0  1  0  1
    7.7654  -25.4477    6.6445  H 0  0  0  1  0  1
    9.0317  -25.0355    7.8499  H 0  0  0  1  0  1
    5.6244  -21.3949    9.1642  H 0  0  0  1  0  1
    2.3390  -21.5674    9.8467  H 0  0  0  1  0  1
    3.8965  -20.6738    9.7995  H 0  0  0  1  0  1
    3.3181  -21.3896   11.3422  H 0  0  0  1  0  1
    7.8098  -21.1584   11.1670  H 0  0  0  1  0  1
    8.7024  -21.9262   14.0681  H 0  0  0  1  0  1
    8.7937  -21.4896   12.3281  H 0  0  0  1  0  1
    7.8800  -22.9486   12.8413  H 0  0  0  1  0  1
    5.6091  -19.6849    9.6628  H 0  0  0  1  0  1
    7.3280  -18.5977   11.7444  H 0  0  0  1  0  1
    5.9600  -17.8464   10.8552  H 0  0  0  1  0  1
    5.7285  -15.8017    7.9450  H 0  0  0  1  0  1
    5.7857  -15.7293    9.7388  H 0  0  0  1  0  1
    5.2415  -17.2312    8.9174  H 0  0  0  1  0  1
  1  2  1  0  0  2
  2  3  1  0  0  1
  2  4  2  0  0  1
  3  6  1  0  0  1
  4  5  1  0  0  1
  5  6  2  0  0  1
  6  7  1  0  0  2
  7  8  1  0  0  1
  7 10  2  0  0  1
  8  9  1  0  0  1
  9 11  2  0  0  1
 10 11  1  0  0  1
 11 12  1  0  0  2
 12 13  1  0  0  2
 13 14  1  0  0  2
 14 15  4  0  0  1
 14 18  4  0  0  1
 15 16  4  0  0  1
 16 17  4  0  0  1
 17 31  4  0  0  1
 18 19  1  0  0  2
 18 31  4  0  0  1
 19 20  1  0  0  2
 20 21  1  0  0  2
 20 30  2  0  0  2
 21 22  1  0  0  1
 21 29  1  0  0  1
 22 23  1  0  0  1
 23 24  1  0  0  1
 24 25  1  0  0  2
 24 28  1  0  0  1
 25 26  1  0  0  2
 25 27  1  0  0  2
 28 29  1  0  0  1
 31 32  1  0  0  2
 32 33  1  0  0  2
 33 34  1  0  0  2
 34 35  1  0  0  2
 35 36  1  0  0  2
 36 37  1  0  0  2
 37 38  1  0  0  1
 37 39  1  0  0  1
 38 54  1  0  0  1
 39 40  1  0  0  2
 39 44  1  0  0  1
 40 41  1  0  0  2
 41 42  2  0  0  2
 41 43  1  0  0  2
 44 45  1  0  0  2
 44 49  1  0  0  1
 45 46  1  0  0  2
 46 47  1  0  0  2
 46 48  2  0  0  2
 49 50  1  0  0  2
 49 54  1  0  0  1
 50 51  1  0  0  2
 51 52  1  0  0  2
 51 53  2  0  0  2
 54 55  1  0  0  2
 55 56  1  0  0  2
 56 57  1  0  0  2
 57 58  2  0  0  2
 57 59  1  0  0  2
  4 60  1  0  0  2
  5 61  1  0  0  2
 10 62  1  0  0  2
 12 63  1  0  0  2
 12 64  1  0  0  2
 15 65  1  0  0  2
 16 66  1  0  0  2
 17 67  1  0  0  2
 19 68  1  0  0  2
 21 69  1  0  0  2
 22 70  1  0  0  2
 22 71  1  0  0  2
 23 72  1  0  0  2
 23 73  1  0  0  2
 24 74  1  0  0  2
 25 75  1  0  0  2
 26 76  1  0  0  2
 26 77  1  0  0  2
 26 78  1  0  0  2
 27 79  1  0  0  2
 27 80  1  0  0  2
 27 81  1  0  0  2
 28 82  1  0  0  2
 28 83  1  0  0  2
 29 84  1  0  0  2
 29 85  1  0  0  2
 33 86  1  0  0  2
 33 87  1  0  0  2
 34 88  1  0  0  2
 34 89  1  0  0  2
 35 90  1  0  0  2
 35 91  1  0  0  2
 37 92  1  0  0  2
 39 93  1  0  0  2
 43 94  1  0  0  2
 43 95  1  0  0  2
 43 96  1  0  0  2
 44 97  1  0  0  2
 47 98  1  0  0  2
 47 99  1  0  0  2
 47100  1  0  0  2
 49101  1  0  0  2
 52102  1  0  0  2
 52103  1  0  0  2
 52104  1  0  0  2
 54105  1  0  0  2
 55106  1  0  0  2
 55107  1  0  0  2
 59108  1  0  0  2
 59109  1  0  0  2
 59110  1  0  0  2
M  END
> <MOLECULAR_FORMULA>
C40H51N3O14SCl

> <MOLECULAR_WEIGHT>
865.0

> <NUM_HB_ATOMS>
16 

> <NUM_ROTOR>
20 

> <XLOGP2>
4.41 

$$$$
