### 
### Created by X-TOOL on Fri Nov 18 15:57:31 2016
### 

@<TRIPOS>MOLECULE
3mi2_ligand
   34    35     1     0     0
SMALL
GAST_HUCK


@<TRIPOS>ATOM
      1 P          26.4990  -13.1770   15.0510 P.3       1 PFU         0.2008
      2 C1         22.6910   -8.2180   15.0150 C.2       1 PFU         0.0833
      3 N1         21.4520   -8.8650   13.2090 N.pl3     1 PFU        -0.2236
      4 O1         21.8640   -5.7940   14.9710 O.3       1 PFU        -0.3476
      5 C2         21.8890   -7.1400   14.4910 C.2       1 PFU         0.1265
      6 N2         22.3810   -9.2470   14.1920 N.2       1 PFU        -0.2199
      7 O2         19.9870   -5.5370   12.8950 O.2       1 PFU        -0.3938
      8 C3         21.1030   -7.5590   13.3590 C.2       1 PFU         0.1720
      9 N3         19.8770   -7.2350   11.4180 N.am      1 PFU        -0.3017
     10 C4         20.2500   -6.7090   12.5400 C.2       1 PFU         0.2155
     11 C1'        23.6240   -8.1820   16.1410 C.3       1 PFU         0.1276
     12 O1P        27.4940  -12.8010   14.0020 O.co2     1 PFU        -0.5537
     13 C2'        23.3730   -9.3100   17.1370 C.3       1 PFU         0.1180
     14 O2'        22.7150   -8.8100   18.3180 O.3       1 PFU        -0.3848
     15 O2P        25.2280  -13.7530   14.4940 O.co2     1 PFU        -0.5537
     16 C3'        24.7590   -9.8200   17.4740 C.3       1 PFU         0.1137
     17 O3'        25.3440   -9.0400   18.5260 O.3       1 PFU        -0.3863
     18 O3P        27.1290  -13.9320   16.1530 O.co2     1 PFU        -0.5537
     19 C4'        25.5310   -9.5620   16.1930 C.3       1 PFU         0.1173
     20 O4'        24.9440   -8.4020   15.5990 O.3       1 PFU        -0.3547
     21 C5'        25.4060  -10.7250   15.2110 C.3       1 PFU         0.1072
     22 O5'        26.0860  -11.8140   15.8100 O.3       1 PFU        -0.2734
     23 H1         21.0857   -9.4885   12.4756 H         1 PFU         0.2459
     24 H2         22.7328   -5.4167   14.8978 H         1 PFU         0.2387
     25 H3         20.1246   -8.1794   11.2018 H         1 PFU         0.1799
     26 H4         19.3412   -6.6970   10.7672 H         1 PFU         0.1799
     27 H5         23.5610   -7.2088   16.6498 H         1 PFU         0.0763
     28 H6         22.7624  -10.1046   16.6834 H         1 PFU         0.0665
     29 H7         21.8820   -8.4231   18.0752 H         1 PFU         0.2102
     30 H8         24.7466  -10.8863   17.7440 H         1 PFU         0.0648
     31 H9         26.2111   -9.3749   18.7224 H         1 PFU         0.2100
     32 H10        26.5924   -9.3862   16.4223 H         1 PFU         0.0651
     33 H11        25.8722  -10.4653   14.2491 H         1 PFU         0.0639
     34 H12        24.3476  -10.9772   15.0493 H         1 PFU         0.0639
@<TRIPOS>BOND
     1    1   12 ar 
     2    1   15 ar 
     3    1   18 ar 
     4   22    1 1  
     5    2    5 1  
     6    2    6 2  
     7   11    2 1  
     8    6    3 1  
     9    3    8 1  
    10    5    4 1  
    11    5    8 2  
    12   10    7 2  
    13    8   10 1  
    14   10    9 am 
    15   11   13 1  
    16   20   11 1  
    17   13   14 1  
    18   16   13 1  
    19   16   17 1  
    20   19   16 1  
    21   19   20 1  
    22   21   19 1  
    23   21   22 1  
    24    3   23 1  
    25    4   24 1  
    26    9   25 1  
    27    9   26 1  
    28   11   27 1  
    29   13   28 1  
    30   14   29 1  
    31   16   30 1  
    32   17   31 1  
    33   19   32 1  
    34   21   33 1  
    35   21   34 1  
@<TRIPOS>SUBSTRUCTURE
     1 PFU         1

