### 
### Created by X-TOOL on Fri Nov 18 15:17:25 2016
### 

@<TRIPOS>MOLECULE
3d2e_ligand
   43    45     1     0     0
SMALL
GAST_HUCK


@<TRIPOS>ATOM
      1 PG         88.2830   75.8590  182.1110 P.3       1 ATP         0.1879
      2 O1G        89.2420   75.5350  183.2250 O.co2     1 ATP        -0.6091
      3 O2G        88.8280   75.3100  180.8380 O.co2     1 ATP        -0.6091
      4 O3G        86.8260   75.5800  182.3340 O.co2     1 ATP        -0.6091
      5 PB         87.5300   78.6660  182.7590 P.3       1 ATP         0.3553
      6 O1B        88.5480   79.4760  183.4680 O.co2     1 ATP        -0.5652
      7 O2B        86.4020   78.0720  183.5760 O.co2     1 ATP        -0.5652
      8 O3B        88.3630   77.4920  181.9610 O.3       1 ATP        -0.1546
      9 PA         85.6650   80.3020  181.2070 P.3       1 ATP         0.3266
     10 O1A        85.4640   81.2220  182.3710 O.co2     1 ATP        -0.5692
     11 O2A        84.5300   79.3940  180.7310 O.co2     1 ATP        -0.5692
     12 O3A        86.9870   79.4280  181.4420 O.3       1 ATP        -0.1171
     13 O5'        85.9990   81.1680  179.9120 O.3       1 ATP        -0.2441
     14 C5'        87.1140   82.0470  179.8260 C.3       1 ATP         0.1131
     15 C4'        87.5510   81.9130  178.3820 C.3       1 ATP         0.1189
     16 O4'        86.4420   82.3220  177.5560 O.3       1 ATP        -0.3364
     17 C3'        88.7260   82.8150  178.0450 C.3       1 ATP         0.1149
     18 O3'        89.5530   82.1360  177.1060 O.3       1 ATP        -0.3864
     19 C2'        88.0670   83.9860  177.3480 C.3       1 ATP         0.1385
     20 O2'        88.9230   84.5660  176.3980 O.3       1 ATP        -0.3836
     21 C1'        86.9080   83.3340  176.6360 C.3       1 ATP         0.2010
     22 N9         85.8820   84.3400  176.3080 N.pl3     1 ATP        -0.1919
     23 C8         85.2140   85.0830  177.2090 C.2       1 ATP         0.1123
     24 N7         84.3390   85.9070  176.6020 N.2       1 ATP        -0.2958
     25 C5         84.4510   85.7020  175.2710 C.ar      1 ATP         0.1045
     26 C6         83.8020   86.2510  174.0490 C.ar      1 ATP         0.1298
     27 N6         82.8480   87.2040  174.1490 N.pl3     1 ATP        -0.3152
     28 N1         84.2040   85.7600  172.8510 N.ar      1 ATP        -0.2698
     29 C2         85.1610   84.7920  172.7490 C.ar      1 ATP         0.0533
     30 N3         85.7740   84.2390  173.8150 N.ar      1 ATP        -0.2714
     31 C4         85.4700   84.6520  175.0790 C.ar      1 ATP         0.1613
     32 H1         87.9159   81.7349  180.5112 H         1 ATP         0.0648
     33 H2         86.8188   83.0818  180.0542 H         1 ATP         0.0648
     34 H3         87.8204   80.8667  178.1755 H         1 ATP         0.0651
     35 H4         89.2943   83.1201  178.9360 H         1 ATP         0.0648
     36 H5         90.2947   82.6861  176.8830 H         1 ATP         0.2100
     37 H6         87.7311   84.7458  178.0690 H         1 ATP         0.0676
     38 H7         89.7100   84.8763  176.8302 H         1 ATP         0.2101
     39 H8         87.2479   82.8607  175.7030 H         1 ATP         0.0996
     40 H9         85.3614   85.0256  178.2864 H         1 ATP         0.1349
     41 H10        82.4035   87.5790  173.2989 H         1 ATP         0.1820
     42 H11        82.5658   87.5550  175.0753 H         1 ATP         0.1820
     43 H12        85.4428   84.4501  171.7596 H         1 ATP         0.0996
@<TRIPOS>BOND
     1    1    2 ar 
     2    1    3 ar 
     3    1    4 ar 
     4    8    1 1  
     5    5    6 ar 
     6    5    7 ar 
     7    5    8 1  
     8   12    5 1  
     9    9   10 ar 
    10    9   11 ar 
    11    9   12 1  
    12    9   13 1  
    13   13   14 1  
    14   14   15 1  
    15   15   16 1  
    16   15   17 1  
    17   16   21 1  
    18   17   18 1  
    19   17   19 1  
    20   19   20 1  
    21   19   21 1  
    22   21   22 1  
    23   22   23 1  
    24   22   31 1  
    25   23   24 2  
    26   24   25 1  
    27   25   26 ar 
    28   25   31 ar 
    29   26   27 1  
    30   26   28 ar 
    31   28   29 ar 
    32   29   30 ar 
    33   30   31 ar 
    34   14   32 1  
    35   14   33 1  
    36   15   34 1  
    37   17   35 1  
    38   18   36 1  
    39   19   37 1  
    40   20   38 1  
    41   21   39 1  
    42   23   40 1  
    43   27   41 1  
    44   27   42 1  
    45   29   43 1  
@<TRIPOS>SUBSTRUCTURE
     1 ATP         1

