### 
### Created by X-TOOL on Wed Dec 13 14:20:10 2017
### 

@<TRIPOS>MOLECULE
5jss_ligand
   68    68     1     0     0
SMALL
GAST_HUCK


@<TRIPOS>ATOM
      1 C1         16.2450   41.3290  -10.6690 C.ar      1 MOL        -0.0578
      2 C2         17.5040   40.9890  -11.1670 C.ar      1 MOL        -0.0685
      3 C3         17.6000   40.4470  -12.4540 C.ar      1 MOL        -0.0687
      4 C7         13.7080   41.5580  -10.8330 C.3       1 MOL         0.1113
      5 C9         12.6700   40.8590   -8.7950 C.2       1 MOL         0.3229
      6 C12        11.9870   40.0840   -6.6390 C.3       1 MOL         0.1132
      7 C19         9.3260   37.9270   -1.1540 C.3       1 MOL        -0.0429
      8 C20         9.5930   38.3230    0.3020 C.3       1 MOL        -0.0625
      9 C21         9.1860   36.4180   -1.3080 C.3       1 MOL        -0.0625
     10 C22         8.8870   39.2570   -3.8550 C.2       1 MOL         0.1977
     11 C27         8.4460   42.6890   -2.0630 C.3       1 MOL        -0.0601
     12 N16        11.3000   38.8690   -4.2390 N.am      1 MOL        -0.2736
     13 C17        10.1020   38.3940   -3.5700 C.3       1 MOL         0.1228
     14 N24         9.1030   40.5580   -4.0400 N.am      1 MOL        -0.2851
     15 C25         7.9970   41.4770   -4.2730 C.3       1 MOL         0.0340
     16 C26         8.2290   42.8250   -3.5820 C.3       1 MOL        -0.0188
     17 C28         7.0880   43.8390   -3.9540 C.3       1 MOL        -0.0333
     18 C29         5.7290   43.4070   -3.3440 C.3       1 MOL        -0.0598
     19 C30         6.8410   43.8920   -5.4950 C.3       1 MOL        -0.0598
     20 C31         7.4330   45.2590   -3.4600 C.3       1 MOL        -0.0598
     21 O23         7.7640   38.7490   -3.8570 O.2       1 MOL        -0.3950
     22 C18        10.4260   38.4590   -2.0690 C.3       1 MOL        -0.0137
     23 P13        11.5170   38.4810   -5.9290 P.3       1 MOL         0.0870
     24 C6         15.0680   41.1570  -11.4260 C.ar      1 MOL        -0.0130
     25 C5         15.1610   40.6300  -12.6990 C.ar      1 MOL        -0.0578
     26 C4         16.4240   40.2820  -13.2030 C.ar      1 MOL        -0.0685
     27 O14        10.1790   38.0580   -6.4940 O.co2     1 MOL        -0.6057
     28 O15        12.5920   37.4680   -6.1500 O.co2     1 MOL        -0.6057
     29 N11        12.7420   39.9390   -7.8550 N.am      1 MOL        -0.2448
     30 O8         13.5360   40.5550   -9.7690 O.3       1 MOL        -0.2506
     31 O10        12.0200   41.8900   -8.7400 O.2       1 MOL        -0.3774
     32 H1         16.1698   41.7384   -9.6681 H         1 MOL         0.0557
     33 H2         18.3933   41.1423  -10.5665 H         1 MOL         0.0599
     34 H3         18.5619   40.1607  -12.8637 H         1 MOL         0.0559
     35 H4         12.9071   41.4869  -11.5836 H         1 MOL         0.0776
     36 H5         13.7355   42.5777  -10.4215 H         1 MOL         0.0776
     37 H6         12.5980   40.6309   -5.9058 H         1 MOL         0.0743
     38 H7         11.0735   40.6572   -6.8554 H         1 MOL         0.0743
     39 H8          8.3752   38.3877   -1.4600 H         1 MOL         0.0298
     40 H9          8.7895   37.9299    0.9421 H         1 MOL         0.0232
     41 H10         9.6238   39.4195    0.3841 H         1 MOL         0.0232
     42 H11        10.5573   37.9039    0.6251 H         1 MOL         0.0232
     43 H12         8.9957   36.1733   -2.3634 H         1 MOL         0.0232
     44 H13         8.3466   36.0629   -0.6922 H         1 MOL         0.0232
     45 H14        10.1146   35.9282   -0.9798 H         1 MOL         0.0232
     46 H15         9.2542   41.9679   -1.8712 H         1 MOL         0.0233
     47 H16         7.5183   42.3341   -1.5904 H         1 MOL         0.0233
     48 H17         8.7205   43.6678   -1.6427 H         1 MOL         0.0233
     49 H18        11.9842   39.4051   -3.7446 H         1 MOL         0.1669
     50 H19         9.8883   37.3592   -3.8759 H         1 MOL         0.0753
     51 H20        10.0389   40.9095   -4.0186 H         1 MOL         0.1851
     52 H21         7.0720   41.0293   -3.8807 H         1 MOL         0.0523
     53 H22         7.8933   41.6438   -5.3553 H         1 MOL         0.0523
     54 H23         9.1636   43.2355   -3.9917 H         1 MOL         0.0323
     55 H24         4.9538   44.1360   -3.6225 H         1 MOL         0.0235
     56 H25         5.8158   43.3647   -2.2483 H         1 MOL         0.0235
     57 H26         5.4535   42.4140   -3.7286 H         1 MOL         0.0235
     58 H27         7.7678   44.1941   -6.0047 H         1 MOL         0.0235
     59 H28         6.0475   44.6215   -5.7143 H         1 MOL         0.0235
     60 H29         6.5338   42.8978   -5.8516 H         1 MOL         0.0235
     61 H30         7.6098   45.2367   -2.3745 H         1 MOL         0.0235
     62 H31         6.5961   45.9377   -3.6813 H         1 MOL         0.0235
     63 H32         8.3392   45.6152   -3.9718 H         1 MOL         0.0235
     64 H33        11.3363   37.8682   -1.8894 H         1 MOL         0.0311
     65 H34        10.6129   39.5102   -1.8043 H         1 MOL         0.0311
     66 H35        14.2708   40.4870  -13.3008 H         1 MOL         0.0557
     67 H36        16.4937   39.8721  -14.2041 H         1 MOL         0.0599
     68 H37        13.3238   39.1365   -7.9872 H         1 MOL         0.1884
@<TRIPOS>BOND
     1    1    2 ar 
     2   24    1 ar 
     3    2    3 ar 
     4    3   26 ar 
     5    4   24 1  
     6   30    4 1  
     7   29    5 am 
     8    5   30 1  
     9    5   31 2  
    10   23    6 1  
    11    6   29 1  
    12    7    8 1  
    13    7    9 1  
    14   22    7 1  
    15   10   13 1  
    16   14   10 am 
    17   10   21 2  
    18   16   11 1  
    19   13   12 1  
    20   12   23 am 
    21   13   22 1  
    22   15   14 1  
    23   15   16 1  
    24   16   17 1  
    25   17   18 1  
    26   17   19 1  
    27   17   20 1  
    28   23   27 ar 
    29   23   28 ar 
    30   24   25 ar 
    31   25   26 ar 
    32    1   32 1  
    33    2   33 1  
    34    3   34 1  
    35    4   35 1  
    36    4   36 1  
    37    6   37 1  
    38    6   38 1  
    39    7   39 1  
    40    8   40 1  
    41    8   41 1  
    42    8   42 1  
    43    9   43 1  
    44    9   44 1  
    45    9   45 1  
    46   11   46 1  
    47   11   47 1  
    48   11   48 1  
    49   12   49 1  
    50   13   50 1  
    51   14   51 1  
    52   15   52 1  
    53   15   53 1  
    54   16   54 1  
    55   18   55 1  
    56   18   56 1  
    57   18   57 1  
    58   19   58 1  
    59   19   59 1  
    60   19   60 1  
    61   20   61 1  
    62   20   62 1  
    63   20   63 1  
    64   22   64 1  
    65   22   65 1  
    66   25   66 1  
    67   26   67 1  
    68   29   68 1  
@<TRIPOS>SUBSTRUCTURE
     1 MOL         1

