### 
### Created by X-TOOL on Fri Nov 18 17:27:46 2016
### 

@<TRIPOS>MOLECULE
4mdn_ligand
   64    69     1     0     0
SMALL
GAST_HUCK


@<TRIPOS>ATOM
      1 OAE       -13.1880   -6.2280    1.8050 O.co2     1 Y30        -0.5421
      2 CBA       -14.1100   -6.0900    2.6450 C.2       1 Y30         0.1412
      3 OAG       -14.2200   -6.8240    3.6440 O.co2     1 Y30        -0.5421
      4 CBH       -15.0950   -5.0130    2.3690 C.2       1 Y30         0.1586
      5 NAY       -14.9960   -4.1770    1.3290 N.pl3     1 Y30        -0.2222
      6 CBJ       -16.0330   -3.3190    1.3500 C.ar      1 Y30         0.0938
      7 CAU       -16.3620   -2.2970    0.4990 C.ar      1 Y30        -0.0166
      8 CBD       -17.4970   -1.5640    0.7400 C.ar      1 Y30         0.0351
      9 CLI       -17.8630   -0.2830   -0.4230 Cl        1 Y30        -0.0739
     10 CAQ       -18.3130   -1.8200    1.8370 C.ar      1 Y30        -0.0557
     11 CAT       -17.9770   -2.8500    2.7070 C.ar      1 Y30        -0.0625
     12 CBK       -16.8360   -3.5940    2.4470 C.ar      1 Y30        -0.0005
     13 CBI       -16.2250   -4.6420    3.1080 C.2       1 Y30        -0.0016
     14 CA        -16.9830   -5.1890    4.2730 C.3       1 Y30         0.0904
     15 C         -17.2880   -4.3250    5.4830 C.2       1 Y30         0.1529
     16 NAX       -16.3530   -3.4710    5.9300 N.am      1 Y30        -0.2926
     17 CBN       -16.5340   -2.5430    7.0520 C.3       1 Y30         0.0435
     18 CAA       -17.7190   -1.6160    6.8130 C.3       1 Y30        -0.0396
     19 CAC       -15.3260   -1.6260    7.1190 C.3       1 Y30        -0.0396
     20 CAB       -16.7190   -3.2360    8.3990 C.3       1 Y30        -0.0396
     21 O         -18.3970   -4.4160    5.9590 O.2       1 Y30        -0.3786
     22 N         -16.8790   -6.6630    4.2830 N.am      1 Y30        -0.3675
     23 CAJ       -18.0330   -7.4270    4.3640 C.2       1 Y30         0.1449
     24 OAD       -18.4310   -8.5570    4.4220 O.2       1 Y30        -0.3723
     25 CAW       -18.2140   -6.0670    3.8220 C.3       1 Y30         0.0918
     26 CBF       -18.5580   -6.2190    2.3090 C.ar      1 Y30        -0.0431
     27 CAP       -17.6600   -6.7370    1.3750 C.ar      1 Y30        -0.0447
     28 CAS       -17.9620   -6.8750    0.0110 C.ar      1 Y30         0.0024
     29 CAO       -19.8160   -5.8910    1.7720 C.ar      1 Y30        -0.0447
     30 CAR       -20.1340   -6.0200    0.3950 C.ar      1 Y30         0.0024
     31 CBG       -19.1950   -6.5120   -0.5250 C.ar      1 Y30         0.1330
     32 OAZ       -19.3820   -6.7240   -1.9000 O.3       1 Y30        -0.2798
     33 CAV       -20.5000   -6.3390   -2.7440 C.3       1 Y30         0.1140
     34 CBE       -20.0780   -6.6080   -4.1800 C.ar      1 Y30        -0.0108
     35 CAM       -19.9180   -7.9220   -4.6250 C.ar      1 Y30        -0.0570
     36 CAN       -19.8310   -5.5550   -5.0530 C.ar      1 Y30        -0.0570
     37 CAL       -19.4170   -5.8030   -6.3570 C.ar      1 Y30        -0.0545
     38 CBC       -19.2500   -7.1220   -6.7800 C.ar      1 Y30         0.0330
     39 CLH       -18.7030   -7.4320   -8.4520 Cl        1 Y30        -0.0771
     40 CAK       -19.4990   -8.1910   -5.9250 C.ar      1 Y30        -0.0545
     41 H1        -14.2452   -4.1882    0.6240 H         1 Y30         0.2554
     42 H2        -15.7334   -2.0700   -0.3545 H         1 Y30         0.0597
     43 H3        -19.2008   -1.2229    2.0112 H         1 Y30         0.0562
     44 H4        -18.5941   -3.0675    3.5712 H         1 Y30         0.0597
     45 H5        -15.4683   -3.4673    5.4639 H         1 Y30         0.1848
     46 H6        -17.8292   -0.9338    7.6688 H         1 Y30         0.0255
     47 H7        -18.6354   -2.2139    6.7004 H         1 Y30         0.0255
     48 H8        -17.5480   -1.0309    5.8973 H         1 Y30         0.0255
     49 H9        -15.4456   -0.9226    7.9562 H         1 Y30         0.0255
     50 H10       -15.2396   -1.0639    6.1774 H         1 Y30         0.0255
     51 H11       -14.4175   -2.2269    7.2720 H         1 Y30         0.0255
     52 H12       -16.8479   -2.4787    9.1863 H         1 Y30         0.0255
     53 H13       -15.8327   -3.8485    8.6211 H         1 Y30         0.0255
     54 H14       -17.6097   -3.8803    8.3607 H         1 Y30         0.0255
     55 H15       -16.6806   -7.0483    1.7198 H         1 Y30         0.0823
     56 H16       -17.2055   -7.2802   -0.6512 H         1 Y30         0.0655
     57 H17       -20.5816   -5.5208    2.4442 H         1 Y30         0.0823
     58 H18       -21.1199   -5.7334    0.0474 H         1 Y30         0.0655
     59 H19       -20.7262   -5.2710   -2.6094 H         1 Y30         0.0800
     60 H20       -21.3884   -6.9366   -2.4920 H         1 Y30         0.0800
     61 H21       -20.1229   -8.7440   -3.9487 H         1 Y30         0.0558
     62 H22       -19.9620   -4.5334   -4.7149 H         1 Y30         0.0558
     63 H23       -19.2262   -4.9809   -7.0373 H         1 Y30         0.0606
     64 H24       -19.3694   -9.2124   -6.2642 H         1 Y30         0.0606
@<TRIPOS>BOND
     1    1    2 ar 
     2    2    3 ar 
     3    2    4 1  
     4    4    5 1  
     5    4   13 2  
     6    5    6 1  
     7    6    7 ar 
     8    6   12 ar 
     9    7    8 ar 
    10    8    9 1  
    11    8   10 ar 
    12   10   11 ar 
    13   11   12 ar 
    14   12   13 1  
    15   13   14 1  
    16   14   15 1  
    17   14   22 1  
    18   14   25 1  
    19   15   16 am 
    20   15   21 2  
    21   16   17 1  
    22   17   18 1  
    23   17   19 1  
    24   17   20 1  
    25   22   23 am 
    26   22   25 1  
    27   23   24 2  
    28   23   25 1  
    29   25   26 1  
    30   26   27 ar 
    31   26   29 ar 
    32   27   28 ar 
    33   28   31 ar 
    34   29   30 ar 
    35   30   31 ar 
    36   31   32 1  
    37   32   33 1  
    38   33   34 1  
    39   34   35 ar 
    40   34   36 ar 
    41   35   40 ar 
    42   36   37 ar 
    43   37   38 ar 
    44   38   39 1  
    45   38   40 ar 
    46    5   41 1  
    47    7   42 1  
    48   10   43 1  
    49   11   44 1  
    50   16   45 1  
    51   18   46 1  
    52   18   47 1  
    53   18   48 1  
    54   19   49 1  
    55   19   50 1  
    56   19   51 1  
    57   20   52 1  
    58   20   53 1  
    59   20   54 1  
    60   27   55 1  
    61   28   56 1  
    62   29   57 1  
    63   30   58 1  
    64   33   59 1  
    65   33   60 1  
    66   35   61 1  
    67   36   62 1  
    68   37   63 1  
    69   40   64 1  
@<TRIPOS>SUBSTRUCTURE
     1 Y30         1

