4n3l_ligand

Created by X-TOOL on Fri Nov 18 17:37:35 2016
 90 94  0  0  0  0  0  0  0  0999 V2000
   15.5700   27.8160   11.5850  C 0  0  0  1  0  3
   16.4110   26.7960   11.3430  C 0  0  0  2  0  3
   16.3080   25.7980   12.2520  C 0  0  0  2  0  3
   15.4040   26.0380   13.2180  C 0  0  0  1  0  3
   14.3750   25.6670   15.3050  O 0  0  0  1  0  2
   15.0510   25.2350   14.2170  C 0  0  0  1  0  3
   10.6050   19.2190   13.4080  O 0  0  0  1  0  1
   10.9290   20.2920   12.9110  C 0  0  0  1  0  3
    9.8760   21.1850   12.2370  C 0  0  0  2  0  4
    9.5550   20.5630   10.8820  C 0  0  0  3  0  4
    8.4660   21.3400   10.1470  C 0  0  0  3  0  4
    7.8400   22.3600   11.0020  N 0  3  0  2  0  4
    6.6490   22.9250   10.3290  C 0  0  0  2  0  4
    7.0180   23.6440    9.0340  C 0  0  0  4  0  4
    5.6270   21.8370   10.0110  C 0  0  0  4  0  4
    7.4290   21.7540   12.2760  C 0  0  0  3  0  4
    8.6150   21.2140   13.0820  C 0  0  0  3  0  4
   12.2020   20.7170   12.8700  N 0  0  0  2  0  3
   13.1430   19.9100   13.3840  C 0  0  0  1  0  3
   13.8350   20.2410   14.5550  C 0  0  0  1  0  3
   13.5180   21.4070   15.1920  O 0  0  0  1  0  2
   14.6590   22.0010   15.8380  C 0  0  0  3  0  4
   14.6870   23.4700   15.3970  C 0  0  0  1  0  3
   14.1510   24.4660   16.0950  N 0  0  0  1  0  2
   15.2230   23.9070   14.2550  C 0  0  0  2  0  3
   14.6630   27.4770   12.9680  S 0  0  0  1  0  2
   15.4090   29.2820   10.6450 Cl 0  0  0  1  0  1
   13.4330   18.7320   12.6980  C 0  0  0  1  0  3
   14.4150   17.8630   13.1870  C 0  0  0  2  0  3
   15.1020   18.1970   14.3610  C 0  0  0  2  0  3
   14.8160   19.3790   15.0430  C 0  0  0  2  0  3
   12.7020   18.5100   11.5650  O 0  0  0  1  0  2
   12.6260   17.1550   11.1100  C 0  0  0  3  0  4
   11.5290   17.0750   10.0350  C 0  0  0  3  0  4
   11.7350   15.8400    9.1510  C 0  0  0  3  0  4
   12.8710   16.0180    8.2840  O 0  0  0  1  0  2
   12.8960   14.9840    7.2750  C 0  0  0  2  0  4
   12.7650   15.5840    5.8340  C 0  0  0  2  0  4
   11.9780   14.7320    4.9820  O 0  0  0  2  0  2
   14.1540   15.7550    5.2490  C 0  0  0  2  0  4
   14.8880   16.6030    6.1340  O 0  0  0  2  0  2
   14.8660   14.3900    5.1560  C 0  0  0  2  0  4
   14.5730   13.7330    3.9190  O 0  0  0  2  0  2
   14.4320   13.4390    6.2950  C 0  0  0  2  0  4
   14.1360   14.2050    7.4710  O 0  0  0  1  0  2
   15.4950   12.3500    6.5110  C 0  0  0  3  0  4
   16.2760   12.1930    5.3200  O 0  0  0  2  0  2
   17.1035   26.7745   10.5028  H 0  0  0  1  0  1
   16.9017   24.8863   12.2052  H 0  0  0  1  0  1
   10.2658   22.2056   12.1087  H 0  0  0  1  0  1
    9.2124   19.5292   11.0366  H 0  0  0  1  0  1
   10.4668   20.5590   10.2667  H 0  0  0  1  0  1
    7.6915   20.6343    9.8121  H 0  0  0  1  0  1
    8.9129   21.8360    9.2728  H 0  0  0  1  0  1
    8.5042   23.0970   11.1802  H 0  0  0  1  0  1
    6.1859   23.6524   11.0119  H 0  0  0  1  0  1
    6.1078   24.0478    8.5667  H 0  0  0  1  0  1
    7.4999   22.9346    8.3452  H 0  0  0  1  0  1
    7.7121   24.4677    9.2569  H 0  0  0  1  0  1
    4.7557   22.2869    9.5126  H 0  0  0  1  0  1
    5.3055   21.3518   10.9444  H 0  0  0  1  0  1
    6.0832   21.0882    9.3468  H 0  0  0  1  0  1
    6.7395   20.9234   12.0647  H 0  0  0  1  0  1
    6.9119   22.5158   12.8778  H 0  0  0  1  0  1
    8.7815   21.8616   13.9554  H 0  0  0  1  0  1
    8.3850   20.1931   13.4210  H 0  0  0  1  0  1
   12.4402   21.6025   12.4710  H 0  0  0  1  0  1
   15.5822   21.4916   15.5246  H 0  0  0  1  0  1
   14.5559   21.9334   16.9311  H 0  0  0  1  0  1
   15.7097   23.2971   13.4954  H 0  0  0  1  0  1
   14.6414   16.9415   12.6629  H 0  0  0  1  0  1
   15.8649   17.5288   14.7438  H 0  0  0  1  0  1
   15.3550   19.6270   15.9502  H 0  0  0  1  0  1
   12.3734   16.4925   11.9510  H 0  0  0  1  0  1
   13.5920   16.8507   10.6808  H 0  0  0  1  0  1
   11.5682   17.9789    9.4094  H 0  0  0  1  0  1
   10.5461   17.0102   10.5245  H 0  0  0  1  0  1
   10.8352   15.6800    8.5388  H 0  0  0  1  0  1
   11.9037   14.9617    9.7914  H 0  0  0  1  0  1
   12.0378   14.3147    7.4348  H 0  0  0  1  0  1
   12.2758   16.5670    5.8996  H 0  0  0  1  0  1
   12.3926   13.8796    4.9184  H 0  0  0  1  0  1
   14.0896   16.2097    4.2495  H 0  0  0  1  0  1
   14.9351   16.1982    6.9921  H 0  0  0  1  0  1
   15.9503   14.5616    5.2251  H 0  0  0  1  0  1
   15.0242   12.8975    3.8909  H 0  0  0  1  0  1
   13.5042   12.9347    5.9872  H 0  0  0  1  0  1
   14.9992   11.3978    6.7510  H 0  0  0  1  0  1
   16.1525   12.6411    7.3434  H 0  0  0  1  0  1
   15.7082   11.9410    4.6013  H 0  0  0  1  0  1
  1  2  2  0  0  1
 26  1  1  0  0  1
  1 27  1  0  0  2
  3  2  1  0  0  1
  4  3  2  0  0  1
  6  4  1  0  0  2
  4 26  1  0  0  1
  5  6  1  0  0  1
 24  5  1  0  0  1
  6 25  2  0  0  1
  8  7  2  0  0  2
  8  9  1  0  0  2
 18  8  1  0  0  2
  9 10  1  0  0  1
  9 17  1  0  0  1
 10 11  1  0  0  1
 11 12  1  0  0  1
 12 13  1  0  0  2
 16 12  1  0  0  1
 13 14  1  0  0  2
 13 15  1  0  0  2
 17 16  1  0  0  1
 19 18  1  0  0  2
 20 19  4  0  0  1
 19 28  4  0  0  1
 21 20  1  0  0  2
 20 31  4  0  0  1
 22 21  1  0  0  2
 23 22  1  0  0  2
 23 24  2  0  0  1
 23 25  1  0  0  1
 28 29  4  0  0  1
 28 32  1  0  0  2
 29 30  4  0  0  1
 30 31  4  0  0  1
 32 33  1  0  0  2
 33 34  1  0  0  2
 34 35  1  0  0  2
 35 36  1  0  0  2
 36 37  1  0  0  2
 37 38  1  0  0  1
 37 45  1  0  0  1
 38 39  1  0  0  2
 38 40  1  0  0  1
 40 41  1  0  0  2
 40 42  1  0  0  1
 42 43  1  0  0  2
 42 44  1  0  0  1
 44 45  1  0  0  1
 44 46  1  0  0  2
 46 47  1  0  0  2
  2 48  1  0  0  2
  3 49  1  0  0  2
  9 50  1  0  0  2
 10 51  1  0  0  2
 10 52  1  0  0  2
 11 53  1  0  0  2
 11 54  1  0  0  2
 12 55  1  0  0  2
 13 56  1  0  0  2
 14 57  1  0  0  2
 14 58  1  0  0  2
 14 59  1  0  0  2
 15 60  1  0  0  2
 15 61  1  0  0  2
 15 62  1  0  0  2
 16 63  1  0  0  2
 16 64  1  0  0  2
 17 65  1  0  0  2
 17 66  1  0  0  2
 18 67  1  0  0  2
 22 68  1  0  0  2
 22 69  1  0  0  2
 25 70  1  0  0  2
 29 71  1  0  0  2
 30 72  1  0  0  2
 31 73  1  0  0  2
 33 74  1  0  0  2
 33 75  1  0  0  2
 34 76  1  0  0  2
 34 77  1  0  0  2
 35 78  1  0  0  2
 35 79  1  0  0  2
 37 80  1  0  0  2
 38 81  1  0  0  2
 39 82  1  0  0  2
 40 83  1  0  0  2
 41 84  1  0  0  2
 42 85  1  0  0  2
 43 86  1  0  0  2
 44 87  1  0  0  2
 46 88  1  0  0  2
 46 89  1  0  0  2
 47 90  1  0  0  2
M  END
> <MOLECULAR_FORMULA>
C32H43N3O10SCl

> <MOLECULAR_WEIGHT>
696.9

> <NUM_HB_ATOMS>
12 

> <NUM_ROTOR>
12 

> <XLOGP2>
2.47 

$$$$
