### 
### Created by X-TOOL on Fri Nov 18 14:27:17 2016
### 

@<TRIPOS>MOLECULE
2am4_ligand
   57    59     1     0     0
SMALL
GAST_HUCK


@<TRIPOS>ATOM
      1 C1          2.8570   20.5620   13.3920 C.3       1 U2F         0.2278
      2 O1          4.3390   20.1930   13.4440 O.3       1 U2F        -0.2151
      3 PB          4.8540   19.4600   12.2400 P.3       1 U2F         0.2997
      4 O1B         6.2360   19.9900   11.9730 O.co2     1 U2F        -0.6127
      5 O2B         4.9730   18.0790   12.7660 O.co2     1 U2F        -0.6127
      6 O3A         4.0350   19.5390   10.9040 O.3       1 U2F        -0.1318
      7 PA          3.7200   18.5240    9.7620 P.3       1 U2F         0.2972
      8 O1A         4.0470   17.2030   10.1860 O.co2     1 U2F        -0.6127
      9 O2A         4.5050   19.0630    8.5950 O.co2     1 U2F        -0.6127
     10 O5'         2.1480   18.6230    9.5240 O.3       1 U2F        -0.2476
     11 C5'         1.2800   18.1470   10.5360 C.3       1 U2F         0.1128
     12 C4'         0.0470   17.6080    9.7490 C.3       1 U2F         0.1189
     13 O4'        -0.6530   18.6400    9.0290 O.3       1 U2F        -0.3363
     14 C1'        -0.7600   18.2440    7.6610 C.3       1 U2F         0.2059
     15 C2'         0.3770   17.3040    7.3720 C.3       1 U2F         0.1387
     16 C3'         0.4250   16.5470    8.7030 C.3       1 U2F         0.1149
     17 O3'        -0.5110   15.4740    8.7220 O.3       1 U2F        -0.3864
     18 O2'         0.0440   16.5120    6.2820 O.3       1 U2F        -0.3836
     19 N1         -0.7540   19.4880    6.8680 N.am      1 U2F        -0.1592
     20 C6'        -1.9790   19.9270    6.2950 C.2       1 U2F         0.3328
     21 O6'        -3.0160   19.3220    6.4440 O.2       1 U2F        -0.3815
     22 N3         -1.9890   21.1100    5.5290 N.am      1 U2F        -0.1865
     23 C7'        -0.8270   21.8560    5.3230 C.2       1 U2F         0.1822
     24 O7'        -0.8890   22.8040    4.6920 O.2       1 U2F        -0.4124
     25 C8'         0.3820   21.4210    5.8950 C.2       1 U2F         0.0062
     26 C9'         0.4260   20.2380    6.6660 C.2       1 U2F         0.0591
     27 C2          2.2130   21.7220   13.9410 C.3       1 U2F         0.1845
     28 F1          2.8270   22.8550   13.3520 F         1 U2F        -0.2370
     29 C3          2.4800   21.8920   15.5030 C.3       1 U2F         0.1196
     30 O3          2.0010   23.1810   16.2120 O.3       1 U2F        -0.3861
     31 C4          1.8680   20.6310   16.2410 C.3       1 U2F         0.1122
     32 O4          2.4130   20.6520   17.6620 O.3       1 U2F        -0.3865
     33 C5          2.3730   19.2270   15.4630 C.3       1 U2F         0.1134
     34 C6          1.5830   18.0250   16.0670 C.3       1 U2F         0.0730
     35 O6          1.9560   16.7720   15.4850 O.3       1 U2F        -0.3924
     36 O5          2.0690   19.4440   14.0660 O.3       1 U2F        -0.3362
     37 H1          2.6232   20.5811   12.3173 H         1 U2F         0.1002
     38 H2          0.9858   18.9614   11.2143 H         1 U2F         0.0648
     39 H3          1.7573   17.3423   11.1145 H         1 U2F         0.0648
     40 H4         -0.6400   17.1569   10.4801 H         1 U2F         0.0651
     41 H5         -1.7084   17.7145    7.4872 H         1 U2F         0.0997
     42 H6          1.3217   17.8311    7.1728 H         1 U2F         0.0676
     43 H7          1.4353   16.1544    8.8905 H         1 U2F         0.0648
     44 H8         -0.3085   14.8662    8.0206 H         1 U2F         0.2100
     45 H9          0.6869   15.8190    6.1874 H         1 U2F         0.2101
     46 H10        -2.8482   21.4222    5.1237 H         1 U2F         0.2259
     47 H11         1.2913   22.0006    5.7424 H         1 U2F         0.0258
     48 H12         1.3663   19.9054    7.1031 H         1 U2F         0.1178
     49 H13         1.1332   21.6888   13.7340 H         1 U2F         0.0734
     50 H14         3.5722   21.8664   15.6310 H         1 U2F         0.0651
     51 H15         2.2294   23.1380   17.1331 H         1 U2F         0.2100
     52 H16         0.7692   20.6824   16.2480 H         1 U2F         0.0647
     53 H17         3.3614   20.6032   17.6370 H         1 U2F         0.2100
     54 H18         3.4527   19.0648   15.5972 H         1 U2F         0.0647
     55 H19         0.5088   18.1874   15.8947 H         1 U2F         0.0584
     56 H20         1.7786   17.9829   17.1486 H         1 U2F         0.0584
     57 H21         1.7843   16.7944   14.5510 H         1 U2F         0.2095
@<TRIPOS>BOND
     1    1    2 1  
     2    1   27 1  
     3    1   36 1  
     4    2    3 1  
     5    3    4 ar 
     6    3    5 ar 
     7    3    6 1  
     8    6    7 1  
     9    7    8 ar 
    10    7    9 ar 
    11    7   10 1  
    12   10   11 1  
    13   11   12 1  
    14   12   13 1  
    15   12   16 1  
    16   13   14 1  
    17   14   15 1  
    18   14   19 1  
    19   15   16 1  
    20   15   18 1  
    21   16   17 1  
    22   19   20 am 
    23   19   26 1  
    24   20   21 2  
    25   20   22 am 
    26   22   23 am 
    27   23   24 2  
    28   23   25 1  
    29   25   26 2  
    30   27   28 1  
    31   27   29 1  
    32   29   30 1  
    33   29   31 1  
    34   31   32 1  
    35   31   33 1  
    36   33   34 1  
    37   33   36 1  
    38   34   35 1  
    39    1   37 1  
    40   11   38 1  
    41   11   39 1  
    42   12   40 1  
    43   14   41 1  
    44   15   42 1  
    45   16   43 1  
    46   17   44 1  
    47   18   45 1  
    48   22   46 1  
    49   25   47 1  
    50   26   48 1  
    51   27   49 1  
    52   29   50 1  
    53   30   51 1  
    54   31   52 1  
    55   32   53 1  
    56   33   54 1  
    57   34   55 1  
    58   34   56 1  
    59   35   57 1  
@<TRIPOS>SUBSTRUCTURE
     1 U2F         1

