### 
### Created by X-TOOL on Fri Nov 18 15:49:04 2016
### 

@<TRIPOS>MOLECULE
3ikd_ligand
   42    44     1     0     0
SMALL
GAST_HUCK


@<TRIPOS>ATOM
      1 C1         13.8830    6.5740    1.1670 C.ar      1 J9Z        -0.0603
      2 N1         13.1320    3.4690    1.0550 N.am      1 J9Z        -0.2786
      3 O1         12.3770    4.3220    2.9500 O.2       1 J9Z        -0.3859
      4 P1         16.8030    0.7690    2.9920 P.3       1 J9Z         0.2008
      5 C2         13.5230    7.8540    1.5840 C.ar      1 J9Z        -0.0686
      6 O2         15.7760    0.7620    4.1400 O.co2     1 J9Z        -0.5537
      7 C3         14.2170    8.4660    2.6260 C.ar      1 J9Z        -0.0687
      8 O3         16.4140    1.9940    2.0410 O.3       1 J9Z        -0.2736
      9 S3          9.6400    5.2200    1.7580 S.3       1 J9Z        -0.0231
     10 C4         15.2620    7.7730    3.2440 C.ar      1 J9Z        -0.0686
     11 O4         18.0900    1.2140    3.6150 O.co2     1 J9Z        -0.5537
     12 C5         15.6210    6.4920    2.8280 C.ar      1 J9Z        -0.0603
     13 O5         16.7120   -0.5000    2.2800 O.co2     1 J9Z        -0.5537
     14 C6         14.9350    5.8830    1.7800 C.ar      1 J9Z        -0.0408
     15 C7         15.3710    4.5520    1.2880 C.3       1 J9Z         0.0063
     16 C8         14.4830    3.3320    1.6680 C.3       1 J9Z         0.0784
     17 C9          8.6960    3.5290   -1.6610 C.ar      1 J9Z        -0.0622
     18 C10         7.4090    4.0020   -2.0000 C.ar      1 J9Z        -0.0688
     19 C11         6.7530    4.9100   -1.1780 C.ar      1 J9Z        -0.0679
     20 C12         7.3830    5.3290    0.0070 C.ar      1 J9Z        -0.0468
     21 C13         8.6640    4.8710    0.3740 C.ar      1 J9Z         0.0418
     22 C14         9.3310    3.9420   -0.4840 C.ar      1 J9Z        -0.0146
     23 C15        10.6040    3.5670    0.0110 C.2       1 J9Z        -0.0363
     24 C16        10.8820    4.2230    1.2350 C.2       1 J9Z         0.1049
     25 C17        12.1560    4.0420    1.7630 C.2       1 J9Z         0.2149
     26 C18        15.1720    1.9870    1.2820 C.3       1 J9Z         0.1030
     27 H1         13.3395    6.1056    0.3545 H         1 J9Z         0.0557
     28 H2         12.9590    3.1369    0.1277 H         1 J9Z         0.1846
     29 H3         12.7043    8.3729    1.0986 H         1 J9Z         0.0599
     30 H4         13.9505    9.4647    2.9525 H         1 J9Z         0.0559
     31 H5         15.8020    8.2395    4.0601 H         1 J9Z         0.0599
     32 H6         16.4338    5.9700    3.3199 H         1 J9Z         0.0557
     33 H7         16.3792    4.3651    1.6861 H         1 J9Z         0.0449
     34 H8         15.4137    4.6019    0.1900 H         1 J9Z         0.0449
     35 H9         14.3556    3.3353    2.7606 H         1 J9Z         0.0604
     36 H10         9.2003    2.8347   -2.3233 H         1 J9Z         0.0594
     37 H11         6.9297    3.6541   -2.9079 H         1 J9Z         0.0564
     38 H12         5.7731    5.2885   -1.4455 H         1 J9Z         0.0589
     39 H13         6.8675    6.0256    0.6582 H         1 J9Z         0.0576
     40 H14        11.2780    2.8686   -0.4829 H         1 J9Z         0.0547
     41 H15        14.5441    1.1304    1.5683 H         1 J9Z         0.0637
     42 H16        15.3748    1.9481    0.2016 H         1 J9Z         0.0637
@<TRIPOS>BOND
     1    1    5 ar 
     2   14    1 ar 
     3    2   16 1  
     4   25    2 am 
     5   25    3 2  
     6    4    6 ar 
     7    8    4 1  
     8    4   11 ar 
     9    4   13 ar 
    10    5    7 ar 
    11   10    7 ar 
    12   26    8 1  
    13    9   21 1  
    14   24    9 1  
    15   12   10 ar 
    16   14   12 ar 
    17   15   14 1  
    18   16   15 1  
    19   16   26 1  
    20   17   18 ar 
    21   22   17 ar 
    22   18   19 ar 
    23   20   19 ar 
    24   21   20 ar 
    25   22   21 ar 
    26   23   22 1  
    27   24   23 2  
    28   24   25 1  
    29    1   27 1  
    30    2   28 1  
    31    5   29 1  
    32    7   30 1  
    33   10   31 1  
    34   12   32 1  
    35   15   33 1  
    36   15   34 1  
    37   16   35 1  
    38   17   36 1  
    39   18   37 1  
    40   19   38 1  
    41   20   39 1  
    42   23   40 1  
    43   26   41 1  
    44   26   42 1  
@<TRIPOS>SUBSTRUCTURE
     1 J9Z         1

