3m8t_ligand

Created by X-TOOL on Fri Nov 18 16:21:28 2016
 19 19  0  0  0  0  0  0  0  0999 V2000
    4.2250   10.3310   -1.0140  S 0  0  0  1  0  4
    7.6950   12.2300    0.9780  C 0  0  0  1  0  3
    4.3730    8.7370   -0.9140  N 0  0  0  3  0  3
    3.0160   10.9000   -0.4320  O 0  0  0  1  0  1
    7.6560   10.8480    0.8330  C 0  0  0  2  0  3
    4.4000   10.7520   -2.3790  O 0  0  0  1  0  1
    6.5630   10.2560    0.1940  C 0  0  0  2  0  3
    5.5060   11.0240   -0.2600  C 0  0  0  1  0  3
    5.5590   12.4100   -0.1280  C 0  0  0  2  0  3
    6.6580   13.0170    0.4760  C 0  0  0  2  0  3
    8.7430   12.8720    1.6450  N 0  0  0  1  0  3
    9.5480   12.2200    2.2730  O 0  0  0  1  0  1
    8.8030   14.1010    1.6200  O 0  0  0  1  0  1
    4.2785    8.2806   -0.0293  H 0  0  0  1  0  1
    4.5598    8.1996   -1.7364  H 0  0  0  1  0  1
    8.4658   10.2351    1.2120  H 0  0  0  1  0  1
    6.5434    9.1815    0.0524  H 0  0  0  1  0  1
    4.7415   13.0188   -0.4969  H 0  0  0  1  0  1
    6.7072   14.0970    0.5557  H 0  0  0  1  0  1
  1  3  1  0  0  2
  1  4  2  0  0  2
  1  6  2  0  0  2
  8  1  1  0  0  2
  5  2  4  0  0  1
  2 10  4  0  0  1
  2 11  1  0  0  2
  7  5  4  0  0  1
  7  8  4  0  0  1
  8  9  4  0  0  1
  9 10  4  0  0  1
 11 12  2  0  0  2
 11 13  2  0  0  2
  3 14  1  0  0  2
  3 15  1  0  0  2
  5 16  1  0  0  2
  7 17  1  0  0  2
  9 18  1  0  0  2
 10 19  1  0  0  2
M  END
> <MOLECULAR_FORMULA>
C6H6N2O4S

> <MOLECULAR_WEIGHT>
202.1

> <NUM_HB_ATOMS>
5  

> <NUM_ROTOR>
1  

> <XLOGP2>
0.36 

$$$$
