### 
### Created by X-TOOL on Fri Nov 18 17:48:29 2016
### 

@<TRIPOS>MOLECULE
4ozj_ligand
   39    41     1     0     0
SMALL
GAST_HUCK


@<TRIPOS>ATOM
      1 PB        -19.6130    2.5360   10.8390 P.3       1 ADP         0.2069
      2 O1B       -20.0720    1.8830    9.5500 O.co2     1 ADP        -0.5891
      3 O2B       -19.7990    1.6520   12.0740 O.co2     1 ADP        -0.5891
      4 O3B       -20.1560    3.9400   11.0250 O.co2     1 ADP        -0.5891
      5 PA        -17.1070    3.5770   11.5460 P.3       1 ADP         0.3276
      6 O1A       -17.2930    5.0360   11.1790 O.co2     1 ADP        -0.5556
      7 O2A       -17.3770    3.0720   12.9460 O.co2     1 ADP        -0.5556
      8 O3A       -18.0200    2.6810   10.5850 O.3       1 ADP        -0.1548
      9 O5'       -15.6830    3.1110   11.1320 O.3       1 ADP        -0.2436
     10 C5'       -15.0270    3.5370    9.9490 C.3       1 ADP         0.1132
     11 C4'       -13.7160    2.7610    9.8880 C.3       1 ADP         0.1189
     12 O4'       -12.9500    2.8390   11.1040 O.3       1 ADP        -0.3364
     13 C3'       -13.9260    1.2650    9.6500 C.3       1 ADP         0.1149
     14 O3'       -14.1370    1.0150    8.2680 O.3       1 ADP        -0.3864
     15 C2'       -12.6370    0.6660   10.1920 C.3       1 ADP         0.1385
     16 O2'       -11.5780    0.8410    9.2570 O.3       1 ADP        -0.3836
     17 C1'       -12.3700    1.5570   11.3820 C.3       1 ADP         0.2010
     18 N9        -12.9160    1.0390   12.6660 N.pl3     1 ADP        -0.1919
     19 C8        -14.0660    1.4280   13.2750 C.2       1 ADP         0.1123
     20 N7        -14.2330    0.8100   14.4660 N.2       1 ADP        -0.2958
     21 C5        -13.1560   -0.0160   14.6050 C.ar      1 ADP         0.1045
     22 C6        -12.7000   -0.9620   15.6180 C.ar      1 ADP         0.1298
     23 N6        -13.4270   -1.1830   16.7320 N.pl3     1 ADP        -0.3152
     24 N1        -11.5230   -1.6180   15.3950 N.ar      1 ADP        -0.2698
     25 C2        -10.7950   -1.4130   14.2800 C.ar      1 ADP         0.0533
     26 N3        -11.1460   -0.5550   13.3050 N.ar      1 ADP        -0.2714
     27 C4        -12.3260    0.1340   13.4210 C.ar      1 ADP         0.1613
     28 H         -14.8287    4.6182    9.9909 H         1 ADP         0.0648
     29 H         -15.6452    3.3114    9.0676 H         1 ADP         0.0648
     30 H         -13.1217    3.1785    9.0618 H         1 ADP         0.0651
     31 H         -14.7912    0.8899   10.2163 H         1 ADP         0.0648
     32 H         -14.9068    1.4886    7.9756 H         1 ADP         0.2100
     33 H         -12.7499   -0.3929   10.4678 H         1 ADP         0.0676
     34 H         -10.7808    0.4626    9.6087 H         1 ADP         0.2101
     35 H         -11.2813    1.6666   11.4948 H         1 ADP         0.0996
     36 H         -14.7669    2.1485   12.8559 H         1 ADP         0.1349
     37 H         -13.0942   -1.8534   17.4396 H         1 ADP         0.1820
     38 H         -14.3152   -0.6814   16.8753 H         1 ADP         0.1820
     39 H          -9.8735   -1.9715   14.1617 H         1 ADP         0.0996
@<TRIPOS>BOND
     1    1    2 ar 
     2    1    3 ar 
     3    1    4 ar 
     4    8    1 1  
     5    5    6 ar 
     6    5    7 ar 
     7    5    8 1  
     8    5    9 1  
     9    9   10 1  
    10   10   11 1  
    11   11   12 1  
    12   11   13 1  
    13   12   17 1  
    14   13   14 1  
    15   13   15 1  
    16   15   16 1  
    17   15   17 1  
    18   17   18 1  
    19   18   19 1  
    20   18   27 1  
    21   19   20 2  
    22   20   21 1  
    23   21   22 ar 
    24   21   27 ar 
    25   22   23 1  
    26   22   24 ar 
    27   24   25 ar 
    28   25   26 ar 
    29   26   27 ar 
    30   10   28 1  
    31   10   29 1  
    32   11   30 1  
    33   13   31 1  
    34   14   32 1  
    35   15   33 1  
    36   16   34 1  
    37   17   35 1  
    38   19   36 1  
    39   23   37 1  
    40   23   38 1  
    41   25   39 1  
@<TRIPOS>SUBSTRUCTURE
     1 ADP         1

