### 
### Created by X-TOOL on Fri Nov 18 15:46:03 2016
### 

@<TRIPOS>MOLECULE
2w5g_ligand
   43    45     1     0     0
SMALL
GAST_HUCK


@<TRIPOS>ATOM
      1 PG         37.4210   -2.8850   22.9320 P.3       1 ATP         0.1879
      2 O1G        38.0700   -1.5240   23.0400 O.co2     1 ATP        -0.6091
      3 O2G        37.7740   -3.6740   21.6910 O.co2     1 ATP        -0.6091
      4 O3G        35.9250   -2.8360   23.0740 O.co2     1 ATP        -0.6091
      5 PB         39.7030   -4.1740   24.0130 P.3       1 ATP         0.3553
      6 O1B        40.1130   -4.7190   25.3530 O.co2     1 ATP        -0.5652
      7 O2B        39.9120   -5.0210   22.7740 O.co2     1 ATP        -0.5652
      8 O3B        38.1300   -3.7590   24.0800 O.3       1 ATP        -0.1546
      9 PA         41.7360   -2.5750   22.7930 P.3       1 ATP         0.3266
     10 O1A        42.6040   -1.4480   23.2890 O.co2     1 ATP        -0.5692
     11 O2A        42.3900   -3.9030   22.4850 O.co2     1 ATP        -0.5692
     12 O3A        40.5120   -2.7850   23.8390 O.3       1 ATP        -0.1171
     13 O5'        40.9420   -2.0460   21.4860 O.3       1 ATP        -0.2441
     14 C5'        41.3420   -2.3830   20.1620 C.3       1 ATP         0.1131
     15 C4'        40.6350   -3.6700   19.7670 C.3       1 ATP         0.1189
     16 O4'        39.4770   -3.4110   18.9720 O.3       1 ATP        -0.3364
     17 C3'        41.5420   -4.5600   18.9440 C.3       1 ATP         0.1149
     18 O3'        41.4770   -5.8580   19.5380 O.3       1 ATP        -0.3864
     19 C2'        40.9150   -4.5720   17.5620 C.3       1 ATP         0.1385
     20 O2'        41.1310   -5.8150   16.8730 O.3       1 ATP        -0.3836
     21 C1'        39.4370   -4.2910   17.8490 C.3       1 ATP         0.2010
     22 N9         38.7580   -3.6360   16.6930 N.pl3     1 ATP        -0.1919
     23 C8         38.9490   -2.3520   16.3140 C.2       1 ATP         0.1123
     24 N7         38.1950   -2.0240   15.2510 N.2       1 ATP        -0.2958
     25 C5         37.4930   -3.1370   14.9440 C.ar      1 ATP         0.1045
     26 C6         36.5190   -3.4920   13.9330 C.ar      1 ATP         0.1298
     27 N6         36.1830   -2.5580   13.0190 N.pl3     1 ATP        -0.3152
     28 N1         36.0040   -4.7730   13.9580 N.ar      1 ATP        -0.2698
     29 C2         36.3760   -5.6940   14.8650 C.ar      1 ATP         0.0533
     30 N3         37.2780   -5.4330   15.8320 N.ar      1 ATP        -0.2714
     31 C4         37.8620   -4.1950   15.8970 C.ar      1 ATP         0.1613
     32 H1         42.4315   -2.5308   20.1281 H         1 ATP         0.0648
     33 H2         41.0598   -1.5755   19.4705 H         1 ATP         0.0648
     34 H3         40.3364   -4.1996   20.6837 H         1 ATP         0.0651
     35 H4         42.5771   -4.1891   18.9133 H         1 ATP         0.0648
     36 H5         42.0339   -6.4554   19.0527 H         1 ATP         0.2100
     37 H6         41.3380   -3.7630   16.9484 H         1 ATP         0.0676
     38 H7         40.7486   -6.5249   17.3754 H         1 ATP         0.2101
     39 H8         38.9076   -5.2222   18.0992 H         1 ATP         0.0996
     40 H9         39.6326   -1.6654   16.8111 H         1 ATP         0.1349
     41 H10        35.4932   -2.7788   12.2866 H         1 ATP         0.1820
     42 H11        36.6163   -1.6242   13.0537 H         1 ATP         0.1820
     43 H12        35.9341   -6.6826   14.8165 H         1 ATP         0.0996
@<TRIPOS>BOND
     1    1    2 ar 
     2    1    3 ar 
     3    1    4 ar 
     4    8    1 1  
     5    5    6 ar 
     6    5    7 ar 
     7    5    8 1  
     8   12    5 1  
     9    9   10 ar 
    10    9   11 ar 
    11    9   12 1  
    12    9   13 1  
    13   13   14 1  
    14   14   15 1  
    15   15   16 1  
    16   15   17 1  
    17   16   21 1  
    18   17   18 1  
    19   17   19 1  
    20   19   20 1  
    21   19   21 1  
    22   21   22 1  
    23   22   23 1  
    24   22   31 1  
    25   23   24 2  
    26   24   25 1  
    27   25   26 ar 
    28   25   31 ar 
    29   26   27 1  
    30   26   28 ar 
    31   28   29 ar 
    32   29   30 ar 
    33   30   31 ar 
    34   14   32 1  
    35   14   33 1  
    36   15   34 1  
    37   17   35 1  
    38   18   36 1  
    39   19   37 1  
    40   20   38 1  
    41   21   39 1  
    42   23   40 1  
    43   27   41 1  
    44   27   42 1  
    45   29   43 1  
@<TRIPOS>SUBSTRUCTURE
     1 ATP         1

