### 
### Created by X-TOOL on Wed Dec 13 14:20:45 2017
### 

@<TRIPOS>MOLECULE
5lwd_ligand
   54    54     1     0     0
SMALL
GAST_HUCK


@<TRIPOS>ATOM
      1 O3         11.8940   42.0390   -8.9110 O.2       1 MOL        -0.3774
      2 C4          8.1260   41.8860   -4.2980 C.3       1 MOL         0.1198
      3 C5          8.9210   39.5720   -3.9500 C.2       1 MOL         0.1998
      4 O4         13.2580   40.7240  -10.1200 O.3       1 MOL        -0.2506
      5 C6         10.1430   38.7040   -3.6710 C.3       1 MOL         0.1230
      6 N1         11.2990   39.1290   -4.4670 N.am      1 MOL        -0.2736
      7 C7         10.5050   38.7490   -2.1890 C.3       1 MOL        -0.0136
      8 C8          9.4540   38.2370   -1.2130 C.3       1 MOL        -0.0429
      9 N2         12.6790   40.0940   -8.0770 N.am      1 MOL        -0.2448
     10 C9          9.8150   38.6250    0.2050 C.3       1 MOL        -0.0625
     11 O5          9.5740   42.8430   -5.9420 O.2       1 MOL        -0.3951
     12 C10         9.2400   36.7260   -1.3580 C.3       1 MOL        -0.0625
     13 C11        12.0080   40.2790   -6.7960 C.3       1 MOL         0.1132
     14 C12        12.5520   41.0370   -9.0230 C.2       1 MOL         0.3229
     15 N3          7.3680   43.3540   -6.0760 N.am      1 MOL        -0.2992
     16 C13        13.6570   41.8500  -10.9900 C.3       1 MOL         0.1113
     17 C14        15.0110   41.3750  -11.4480 C.ar      1 MOL        -0.0130
     18 C15        15.1480   40.7620  -12.6840 C.ar      1 MOL        -0.0578
     19 C20         8.4090   42.7190   -5.5420 C.2       1 MOL         0.1960
     20 N           9.1630   40.8640   -4.1670 N.am      1 MOL        -0.2668
     21 O           7.7930   39.0800   -3.8930 O.2       1 MOL        -0.3948
     22 P          11.5080   38.7280   -6.0490 P.3       1 MOL         0.0870
     23 O2         10.2000   38.2910   -6.5800 O.co2     1 MOL        -0.6057
     24 O1         12.5990   37.6840   -6.2630 O.co2     1 MOL        -0.6057
     25 C19        16.1480   41.5480  -10.6650 C.ar      1 MOL        -0.0578
     26 C18        17.3850   41.1050  -11.1020 C.ar      1 MOL        -0.0685
     27 C17        17.5040   40.4730  -12.3310 C.ar      1 MOL        -0.0687
     28 C16        16.3840   40.3040  -13.1190 C.ar      1 MOL        -0.0685
     29 H1          7.1420   41.4036   -4.3925 H         1 MOL         0.0763
     30 H2          8.1326   42.5347   -3.4097 H         1 MOL         0.0763
     31 H3          9.8967   37.6666   -3.9414 H         1 MOL         0.0753
     32 H4         11.9971   39.6923   -4.0250 H         1 MOL         0.1669
     33 H5         10.7187   39.7964   -1.9296 H         1 MOL         0.0311
     34 H6         11.4129   38.1439   -2.0490 H         1 MOL         0.0311
     35 H7          8.5015   38.7287   -1.4597 H         1 MOL         0.0298
     36 H8         13.2267   39.2751   -8.2484 H         1 MOL         0.1884
     37 H9          9.0462   38.2476    0.8954 H         1 MOL         0.0232
     38 H10         9.8711   39.7208    0.2823 H         1 MOL         0.0232
     39 H11        10.7899   38.1884    0.4677 H         1 MOL         0.0232
     40 H12         8.9806   36.4909   -2.4008 H         1 MOL         0.0232
     41 H13         8.4220   36.4063   -0.6957 H         1 MOL         0.0232
     42 H14        10.1638   36.1966   -1.0817 H         1 MOL         0.0232
     43 H15        11.1130   40.8988   -6.9534 H         1 MOL         0.0743
     44 H16        12.6953   40.7951   -6.1096 H         1 MOL         0.0743
     45 H17         7.4911   43.9165   -6.8936 H         1 MOL         0.1815
     46 H18         6.4629   43.2685   -5.6596 H         1 MOL         0.1815
     47 H19        13.7260   42.7931  -10.4280 H         1 MOL         0.0776
     48 H20        12.9637   41.9764  -11.8346 H         1 MOL         0.0776
     49 H21        14.2782   40.6388  -13.3191 H         1 MOL         0.0557
     50 H22        10.1169   41.1538   -4.2454 H         1 MOL         0.1880
     51 H23        16.0644   42.0358   -9.7006 H         1 MOL         0.0557
     52 H24        18.2622   41.2524  -10.4824 H         1 MOL         0.0599
     53 H25        18.4694   40.1147  -12.6698 H         1 MOL         0.0559
     54 H26        16.4697   39.8119  -14.0811 H         1 MOL         0.0599
@<TRIPOS>BOND
     1   14    1 2  
     2    2   19 1  
     3   20    2 1  
     4    5    3 1  
     5    3   20 am 
     6    3   21 2  
     7   14    4 1  
     8    4   16 1  
     9    6    5 1  
    10    5    7 1  
    11   22    6 am 
    12    7    8 1  
    13    8   10 1  
    14    8   12 1  
    15   13    9 1  
    16    9   14 am 
    17   19   11 2  
    18   13   22 1  
    19   19   15 am 
    20   16   17 1  
    21   17   18 ar 
    22   17   25 ar 
    23   18   28 ar 
    24   22   23 ar 
    25   22   24 ar 
    26   25   26 ar 
    27   26   27 ar 
    28   27   28 ar 
    29    2   29 1  
    30    2   30 1  
    31    5   31 1  
    32    6   32 1  
    33    7   33 1  
    34    7   34 1  
    35    8   35 1  
    36    9   36 1  
    37   10   37 1  
    38   10   38 1  
    39   10   39 1  
    40   12   40 1  
    41   12   41 1  
    42   12   42 1  
    43   13   43 1  
    44   13   44 1  
    45   15   45 1  
    46   15   46 1  
    47   16   47 1  
    48   16   48 1  
    49   18   49 1  
    50   20   50 1  
    51   25   51 1  
    52   26   52 1  
    53   27   53 1  
    54   28   54 1  
@<TRIPOS>SUBSTRUCTURE
     1 MOL         1

