### 
### Created by X-TOOL on Fri Nov 18 17:47:03 2016
### 

@<TRIPOS>MOLECULE
4rww_ligand
   66    72     1     0     0
SMALL
GAST_HUCK


@<TRIPOS>ATOM
      1 P          59.7810   74.0240  -87.8770 P.3       1 MOL         0.2557
      2 O1P        59.2200   73.4190  -86.6290 O.co2     1 MOL        -0.6177
      3 O2P        60.9150   75.0240  -87.8200 O.co2     1 MOL        -0.6177
      4 O5'        58.6440   74.7680  -88.7320 O.3       1 MOL        -0.2514
      5 C5'        57.3730   74.1040  -88.9500 C.3       1 MOL         0.1128
      6 C4'        56.4560   75.0190  -89.7280 C.3       1 MOL         0.1242
      7 O4'        56.1990   76.2010  -88.9960 O.3       1 MOL        -0.3360
      8 C3'        57.0340   75.5140  -91.0460 C.3       1 MOL         0.1540
      9 O3'        56.8820   74.4940  -92.0320 O.3       1 MOL        -0.2453
     10 C2'        56.3110   76.8140  -91.3340 C.3       1 MOL         0.1439
     11 O2'        55.2740   76.6680  -92.2980 O.3       1 MOL        -0.3832
     12 C1'        55.6910   77.0620  -89.9740 C.3       1 MOL         0.2014
     13 N9         55.7950   78.4100  -89.5790 N.pl3     1 MOL        -0.1919
     14 C8         54.7220   79.2080  -89.2090 C.2       1 MOL         0.1123
     15 N7         55.1510   80.3930  -88.7350 N.2       1 MOL        -0.2958
     16 C5         56.5100   80.2740  -88.7870 C.ar      1 MOL         0.1045
     17 C6         57.5690   81.1860  -88.4280 C.ar      1 MOL         0.1298
     18 N6         57.2750   82.4130  -87.9730 N.pl3     1 MOL        -0.3152
     19 N1         58.8240   80.7590  -88.6150 N.ar      1 MOL        -0.2698
     20 C2         59.1000   79.5320  -89.0250 C.ar      1 MOL         0.0533
     21 N3         58.2090   78.6310  -89.4410 N.ar      1 MOL        -0.2714
     22 C4         56.8980   78.9730  -89.2690 C.ar      1 MOL         0.1613
     23 P1         57.9910   74.2830  -93.1730 P.3       1 MOL         0.2557
     24 O1P1       58.4360   75.5820  -93.7190 O.co2     1 MOL        -0.6177
     25 O2P1       57.4580   73.2410  -94.1480 O.co2     1 MOL        -0.6177
     26 O5'1       59.2580   73.6410  -92.3970 O.3       1 MOL        -0.2514
     27 C5'1       59.2440   72.3340  -91.8230 C.3       1 MOL         0.1128
     28 C4'1       60.5710   72.1280  -91.1510 C.3       1 MOL         0.1242
     29 O4'1       61.6340   72.1950  -92.1210 O.3       1 MOL        -0.3360
     30 C3'1       60.9120   73.1610  -90.0990 C.3       1 MOL         0.1540
     31 O3'1       60.2730   72.8290  -88.8700 O.3       1 MOL        -0.2453
     32 C2'1       62.4370   73.0600  -90.0160 C.3       1 MOL         0.1439
     33 O2'1       62.8360   71.9040  -89.2700 O.3       1 MOL        -0.3832
     34 C1'1       62.7730   72.8040  -91.4730 C.3       1 MOL         0.2014
     35 N91        63.0300   74.0500  -92.1930 N.pl3     1 MOL        -0.1919
     36 C81        62.1360   74.9580  -92.7600 C.2       1 MOL         0.1123
     37 N71        62.7960   75.9420  -93.4120 N.2       1 MOL        -0.2958
     38 C51        64.1320   75.8120  -93.0470 C.ar      1 MOL         0.1045
     39 C61        65.3320   76.5150  -93.4440 C.ar      1 MOL         0.1298
     40 N61        65.2470   77.6500  -94.1910 N.pl3     1 MOL        -0.3152
     41 N11        66.5080   75.9990  -93.0570 N.ar      1 MOL        -0.2698
     42 C21        66.5470   74.8780  -92.3200 C.ar      1 MOL         0.0533
     43 N31        65.4690   74.1310  -91.9760 N.ar      1 MOL        -0.2714
     44 C41        64.2630   74.5630  -92.3650 C.ar      1 MOL         0.1613
     45 H1         56.9139   73.8625  -87.9800 H         1 MOL         0.0647
     46 H2         57.5360   73.1771  -89.5194 H         1 MOL         0.0647
     47 H3         55.5166   74.4802  -89.9209 H         1 MOL         0.0655
     48 H4         58.1081   75.7231  -90.9340 H         1 MOL         0.0712
     49 H5         57.0034   77.6122  -91.6397 H         1 MOL         0.0680
     50 H6         54.6328   76.0436  -91.9796 H         1 MOL         0.2101
     51 H7         54.6181   76.8391  -90.0696 H         1 MOL         0.0996
     52 H8         53.6761   78.9159  -89.2908 H         1 MOL         0.1349
     53 H9         58.0323   83.0626  -87.7172 H         1 MOL         0.1820
     54 H10        56.2919   82.7057  -87.8793 H         1 MOL         0.1820
     55 H11        60.1418   79.2325  -89.0227 H         1 MOL         0.0996
     56 H12        59.0990   71.5788  -92.6095 H         1 MOL         0.0647
     57 H13        58.4321   72.2555  -91.0851 H         1 MOL         0.0647
     58 H14        60.5610   71.1338  -90.6804 H         1 MOL         0.0655
     59 H15        60.6030   74.1695  -90.4110 H         1 MOL         0.0712
     60 H16        62.9010   73.9730  -89.6146 H         1 MOL         0.0680
     61 H17        63.7845   71.8641  -89.2331 H         1 MOL         0.2101
     62 H18        63.6512   72.1445  -91.5358 H         1 MOL         0.0996
     63 H19        61.0519   74.8845  -92.6874 H         1 MOL         0.1349
     64 H20        66.1043   78.1474  -94.4714 H         1 MOL         0.1820
     65 H21        64.3254   78.0113  -94.4757 H         1 MOL         0.1820
     66 H22        67.5175   74.5432  -91.9721 H         1 MOL         0.0996
@<TRIPOS>BOND
     1    1    2 ar 
     2    1    3 ar 
     3    1    4 1  
     4    1   31 1  
     5    4    5 1  
     6    5    6 1  
     7    6    7 1  
     8    6    8 1  
     9    7   12 1  
    10    8    9 1  
    11    8   10 1  
    12    9   23 1  
    13   10   11 1  
    14   10   12 1  
    15   12   13 1  
    16   13   14 1  
    17   13   22 1  
    18   14   15 2  
    19   15   16 1  
    20   16   17 ar 
    21   16   22 ar 
    22   17   18 1  
    23   17   19 ar 
    24   19   20 ar 
    25   20   21 ar 
    26   21   22 ar 
    27   23   24 ar 
    28   23   25 ar 
    29   23   26 1  
    30   26   27 1  
    31   27   28 1  
    32   28   29 1  
    33   28   30 1  
    34   29   34 1  
    35   30   31 1  
    36   30   32 1  
    37   32   33 1  
    38   32   34 1  
    39   34   35 1  
    40   35   36 1  
    41   35   44 1  
    42   36   37 2  
    43   37   38 1  
    44   38   39 ar 
    45   38   44 ar 
    46   39   40 1  
    47   39   41 ar 
    48   41   42 ar 
    49   42   43 ar 
    50   43   44 ar 
    51    5   45 1  
    52    5   46 1  
    53    6   47 1  
    54    8   48 1  
    55   10   49 1  
    56   11   50 1  
    57   12   51 1  
    58   14   52 1  
    59   18   53 1  
    60   18   54 1  
    61   20   55 1  
    62   27   56 1  
    63   27   57 1  
    64   28   58 1  
    65   30   59 1  
    66   32   60 1  
    67   33   61 1  
    68   34   62 1  
    69   36   63 1  
    70   40   64 1  
    71   40   65 1  
    72   42   66 1  
@<TRIPOS>SUBSTRUCTURE
     1 MOL         1

