### 
### Created by X-TOOL on Fri Nov 18 14:50:58 2016
### 

@<TRIPOS>MOLECULE
2ihj_ligand
   70    72     1     0     0
SMALL
GAST_HUCK


@<TRIPOS>ATOM
      1 C5A        10.7400    4.2170    1.3480 C.3       1 CSF         0.0992
      2 C4A        11.5540    3.5610    2.4760 C.3       1 CSF         0.1165
      3 C2A        10.1960    1.5070    2.3380 C.3       1 CSF         0.2837
      4 O6A         9.5050    2.1150    1.2340 O.3       1 CSF        -0.3326
      5 C6A        10.2320    3.0770    0.4460 C.3       1 CSF         0.1148
      6 C3A        10.6380    2.6260    3.2800 C.3       1 CSF         0.1928
      7 O4A        12.2400    4.4780    3.3420 O.3       1 CSF        -0.3865
      8 N5A        11.6580    5.0140    0.5380 N.am      1 CSF        -0.2789
      9 C7A         9.3440    3.4930   -0.7350 C.3       1 CSF         0.1114
     10 C8A         8.8510    2.2690   -1.5300 C.3       1 CSF         0.1065
     11 C9A         7.8930    2.6110   -2.6750 C.3       1 CSF         0.0727
     12 O9A         8.5920    3.3230   -3.7050 O.3       1 CSF        -0.3924
     13 O8A         9.9650    1.5410   -2.0680 O.3       1 CSF        -0.3869
     14 O7A         8.2280    4.2380   -0.2390 O.3       1 CSF        -0.3865
     15 C1A         9.2320    0.5710    3.0500 C.2       1 CSF         0.1124
     16 OBA         9.5930   -0.0380    4.0720 O.co2     1 CSF        -0.5423
     17 OAA         8.0730    0.4270    2.6050 O.co2     1 CSF        -0.5423
     18 O1A        11.4190    0.8330    1.9460 O.3       1 CSF        -0.2130
     19 O2A        12.8220    0.4600   -0.1220 O.co2     1 CSF        -0.6177
     20 N1         11.7120   -5.4310    1.2650 N.am      1 CSF        -0.1649
     21 C2         11.7390   -6.7970    0.8930 C.2       1 CSF         0.2512
     22 N3         11.5090   -7.1500   -0.4000 N.2       1 CSF        -0.2774
     23 C4         11.2430   -6.2150   -1.3520 C.2       1 CSF         0.0850
     24 C5         11.2170   -4.8640   -1.0010 C.2       1 CSF         0.0083
     25 C6         11.4470   -4.5020    0.3230 C.2       1 CSF         0.0795
     26 PA         11.6790   -0.1430    0.6630 P.3       1 CSF         0.2585
     27 N4         11.0220   -6.5810   -2.6410 N.pl3     1 CSF        -0.3156
     28 O2         11.9760   -7.6670    1.7700 O.2       1 CSF        -0.4066
     29 O3A        10.3510   -0.4210    0.0390 O.co2     1 CSF        -0.6177
     30 C10        11.3780    6.2280    0.0410 C.2       1 CSF         0.1733
     31 O10        10.3130    6.8050    0.2190 O.2       1 CSF        -0.3974
     32 C11        12.4740    6.8520   -0.7750 C.3       1 CSF         0.0257
     33 F3A         9.5330    3.2840    3.7900 F         1 CSF        -0.2374
     34 C3'        13.7930   -3.5750    2.8440 C.3       1 CSF         0.1152
     35 C2'        13.4320   -5.0350    3.0230 C.3       1 CSF         0.1409
     36 C1'        11.9500   -5.0590    2.6820 C.3       1 CSF         0.2119
     37 O4'        11.4630   -3.7410    2.9930 O.3       1 CSF        -0.3345
     38 C4'        12.5460   -2.8870    3.3790 C.3       1 CSF         0.1191
     39 O5'        12.2660   -1.4490    1.4100 O.3       1 CSF        -0.2514
     40 C5'        12.3600   -1.4680    2.8400 C.3       1 CSF         0.1124
     41 O3'        14.9810   -3.2050    3.5510 O.3       1 CSF        -0.3864
     42 O2'        13.5800   -5.4130    4.3970 O.3       1 CSF        -0.3834
     43 H1          9.9142    4.8260    1.7444 H         1 CSF         0.0609
     44 H2         12.3273    2.9429    1.9964 H         1 CSF         0.0647
     45 H3         11.1206    2.5829    0.0262 H         1 CSF         0.0646
     46 H4         11.2072    2.1978    4.1182 H         1 CSF         0.0730
     47 H5         11.6038    5.0039    3.8123 H         1 CSF         0.2100
     48 H6         12.5587    4.6272    0.3401 H         1 CSF         0.1856
     49 H7          9.9311    4.1338   -1.4093 H         1 CSF         0.0647
     50 H8          8.3136    1.6152   -0.8273 H         1 CSF         0.0643
     51 H9          7.0749    3.2376   -2.2903 H         1 CSF         0.0584
     52 H10         7.4780    1.6817   -3.0923 H         1 CSF         0.0584
     53 H11         9.2980    2.7822   -4.0390 H         1 CSF         0.2095
     54 H12        10.4100    2.0770   -2.7139 H         1 CSF         0.2100
     55 H13         8.5424    4.9898    0.2492 H         1 CSF         0.2100
     56 H14        11.0191   -4.1027   -1.7541 H         1 CSF         0.0373
     57 H15        11.4125   -3.4504    0.6037 H         1 CSF         0.1328
     58 H16        10.8216   -5.8640   -3.3528 H         1 CSF         0.1833
     59 H17        11.0548   -7.5756   -2.9068 H         1 CSF         0.1833
     60 H18        12.1471    7.8390   -1.1342 H         1 CSF         0.0467
     61 H19        12.7036    6.2063   -1.6354 H         1 CSF         0.0467
     62 H20        13.3738    6.9678   -0.1530 H         1 CSF         0.0467
     63 H21        13.9369   -3.3402    1.7790 H         1 CSF         0.0648
     64 H22        14.0247   -5.6905    2.3680 H         1 CSF         0.0678
     65 H23        11.4394   -5.7961    3.3191 H         1 CSF         0.1026
     66 H24        12.6023   -2.8307    4.4761 H         1 CSF         0.0651
     67 H25        13.2195   -0.8547    3.1483 H         1 CSF         0.0647
     68 H26        11.4370   -1.0448    3.2629 H         1 CSF         0.0647
     69 H27        15.7257   -3.6615    3.1773 H         1 CSF         0.2100
     70 H28        14.5011   -5.4039    4.6293 H         1 CSF         0.2101
@<TRIPOS>BOND
     1    2    1 1  
     2    5    1 1  
     3    1    8 1  
     4    6    2 1  
     5    2    7 1  
     6    3    4 1  
     7    3    6 1  
     8    3   15 1  
     9   18    3 1  
    10    4    5 1  
    11    5    9 1  
    12    6   33 1  
    13    8   30 am 
    14    9   10 1  
    15    9   14 1  
    16   10   11 1  
    17   10   13 1  
    18   11   12 1  
    19   15   16 ar 
    20   15   17 ar 
    21   26   18 1  
    22   26   19 ar 
    23   20   21 am 
    24   20   25 1  
    25   36   20 1  
    26   21   22 1  
    27   21   28 2  
    28   22   23 2  
    29   24   23 1  
    30   23   27 1  
    31   25   24 2  
    32   26   29 ar 
    33   39   26 1  
    34   30   31 2  
    35   30   32 1  
    36   34   35 1  
    37   38   34 1  
    38   34   41 1  
    39   36   35 1  
    40   35   42 1  
    41   37   36 1  
    42   38   37 1  
    43   40   38 1  
    44   39   40 1  
    45    1   43 1  
    46    2   44 1  
    47    5   45 1  
    48    6   46 1  
    49    7   47 1  
    50    8   48 1  
    51    9   49 1  
    52   10   50 1  
    53   11   51 1  
    54   11   52 1  
    55   12   53 1  
    56   13   54 1  
    57   14   55 1  
    58   24   56 1  
    59   25   57 1  
    60   27   58 1  
    61   27   59 1  
    62   32   60 1  
    63   32   61 1  
    64   32   62 1  
    65   34   63 1  
    66   35   64 1  
    67   36   65 1  
    68   38   66 1  
    69   40   67 1  
    70   40   68 1  
    71   41   69 1  
    72   42   70 1  
@<TRIPOS>SUBSTRUCTURE
     1 CSF         1

