### 
### Created by X-TOOL on Fri Nov 18 17:49:13 2016
### 

@<TRIPOS>MOLECULE
4mo4_ligand
   42    44     1     0     0
SMALL
GAST_HUCK


@<TRIPOS>ATOM
      1 PB         -2.9140  -42.7400   27.4000 P.3       1 ACP         0.1591
      2 O1B        -1.8490  -41.6790   27.3470 O.co2     1 ACP        -0.6153
      3 O2B        -2.5500  -43.9540   28.3140 O.co2     1 ACP        -0.6153
      4 C3B        -3.3910  -43.3720   25.7760 C.3       1 ACP         0.0314
      5 PA         -4.4880  -41.2100   29.3350 P.3       1 ACP         0.2951
      6 O1A        -4.6010  -39.7400   29.1610 O.co2     1 ACP        -0.6125
      7 O2A        -3.3380  -41.4840   30.3150 O.co2     1 ACP        -0.6125
      8 O3A        -4.2110  -42.0610   28.0280 O.3       1 ACP        -0.1601
      9 O5'        -5.8390  -41.8590   29.9200 O.3       1 ACP        -0.2475
     10 C5'        -5.8340  -43.1920   30.4680 C.3       1 ACP         0.1128
     11 C4'        -6.1630  -43.0450   31.9300 C.3       1 ACP         0.1189
     12 O4'        -7.3250  -42.2020   32.0600 O.3       1 ACP        -0.3364
     13 C3'        -6.5550  -44.3260   32.6530 C.3       1 ACP         0.1149
     14 O3'        -5.4120  -45.0760   33.0580 O.3       1 ACP        -0.3864
     15 C2'        -7.3560  -43.7800   33.8400 C.3       1 ACP         0.1385
     16 O2'        -6.5110  -43.3980   34.9180 O.3       1 ACP        -0.3836
     17 C1'        -8.0410  -42.5490   33.2320 C.3       1 ACP         0.2010
     18 N9         -9.4400  -42.7660   32.8960 N.pl3     1 ACP        -0.1919
     19 C8         -9.9830  -43.0380   31.6560 C.2       1 ACP         0.1123
     20 N7        -11.2730  -43.2370   31.6730 N.2       1 ACP        -0.2958
     21 C5        -11.6250  -43.0850   33.0170 C.ar      1 ACP         0.1045
     22 C6        -12.8490  -43.1760   33.6930 C.ar      1 ACP         0.1298
     23 N6        -14.0150  -43.4430   33.0980 N.pl3     1 ACP        -0.3152
     24 N1        -12.8410  -42.9630   35.0310 N.ar      1 ACP        -0.2698
     25 C2        -11.6820  -42.6730   35.6300 C.ar      1 ACP         0.0533
     26 N3        -10.4630  -42.5650   35.0930 N.ar      1 ACP        -0.2714
     27 C4        -10.4980  -42.7880   33.7610 C.ar      1 ACP         0.1613
     28 H          -2.5234  -43.8526   25.3003 H         1 ACP         0.0452
     29 H          -3.7399  -42.5400   25.1467 H         1 ACP         0.0452
     30 H          -4.2000  -44.1082   25.8922 H         1 ACP         0.0452
     31 H          -4.8423  -43.6516   30.3445 H         1 ACP         0.0648
     32 H          -6.5911  -43.8133   29.9672 H         1 ACP         0.0648
     33 H          -5.2967  -42.5940   32.4360 H         1 ACP         0.0651
     34 H          -7.1874  -44.9605   32.0147 H         1 ACP         0.0648
     35 H          -4.8822  -44.5509   33.6463 H         1 ACP         0.2100
     36 H          -8.0929  -44.5162   34.1936 H         1 ACP         0.0676
     37 H          -6.0163  -44.1530   35.2140 H         1 ACP         0.2101
     38 H          -7.9846  -41.7222   33.9553 H         1 ACP         0.0996
     39 H          -9.3881  -43.0825   30.7450 H         1 ACP         0.1349
     40 H         -14.8784  -43.4952   33.6571 H         1 ACP         0.1820
     41 H         -14.0505  -43.5966   32.0801 H         1 ACP         0.1820
     42 H         -11.7385  -42.5018   36.6989 H         1 ACP         0.0996
@<TRIPOS>BOND
     1    1    2 ar 
     2    1    3 ar 
     3    1    4 1  
     4    8    1 1  
     5    5    6 ar 
     6    5    7 ar 
     7    5    8 1  
     8    5    9 1  
     9    9   10 1  
    10   10   11 1  
    11   11   12 1  
    12   11   13 1  
    13   12   17 1  
    14   13   14 1  
    15   13   15 1  
    16   15   16 1  
    17   15   17 1  
    18   17   18 1  
    19   18   19 1  
    20   18   27 1  
    21   19   20 2  
    22   20   21 1  
    23   21   22 ar 
    24   21   27 ar 
    25   22   23 1  
    26   22   24 ar 
    27   24   25 ar 
    28   25   26 ar 
    29   26   27 ar 
    30    4   28 1  
    31    4   29 1  
    32    4   30 1  
    33   10   31 1  
    34   10   32 1  
    35   11   33 1  
    36   13   34 1  
    37   14   35 1  
    38   15   36 1  
    39   16   37 1  
    40   17   38 1  
    41   19   39 1  
    42   23   40 1  
    43   23   41 1  
    44   25   42 1  
@<TRIPOS>SUBSTRUCTURE
     1 ACP         1

