### 
### Created by X-TOOL on Fri Nov 18 17:57:02 2016
### 

@<TRIPOS>MOLECULE
4lj5_ligand
   39    41     1     0     0
SMALL
GAST_HUCK


@<TRIPOS>ATOM
      1 PB         54.1090   18.7210   46.1100 P.3       1 ADP         0.2069
      2 O1B        55.1640   18.6820   45.0340 O.co2     1 ADP        -0.5891
      3 O2B        54.4480   17.9270   47.3470 O.co2     1 ADP        -0.5891
      4 O3B        52.7000   18.5320   45.6140 O.co2     1 ADP        -0.5891
      5 PA         53.0980   20.7840   47.7260 P.3       1 ADP         0.3276
      6 O1A        51.7280   20.8790   47.0900 O.co2     1 ADP        -0.5556
      7 O2A        53.2910   20.0100   49.0040 O.co2     1 ADP        -0.5556
      8 O3A        54.1270   20.2460   46.6130 O.3       1 ADP        -0.1548
      9 O5'        53.6800   22.2500   48.0460 O.3       1 ADP        -0.2436
     10 C5'        53.4640   23.3550   47.1760 C.3       1 ADP         0.1132
     11 C4'        52.9070   24.5350   47.9620 C.3       1 ADP         0.1189
     12 O4'        52.3910   25.4990   47.0410 O.3       1 ADP        -0.3364
     13 C3'        51.7710   24.1570   48.9060 C.3       1 ADP         0.1149
     14 O3'        52.1550   24.3130   50.2750 O.3       1 ADP        -0.3864
     15 C2'        50.6250   25.0830   48.5560 C.3       1 ADP         0.1385
     16 O2'        50.4790   26.1220   49.5290 O.3       1 ADP        -0.3836
     17 C1'        50.9840   25.6780   47.2050 C.3       1 ADP         0.2010
     18 N9         50.2430   25.0090   46.1010 N.pl3     1 ADP        -0.1919
     19 C8         50.7810   24.3670   45.0450 C.2       1 ADP         0.1123
     20 N7         49.8170   23.8810   44.2250 N.2       1 ADP        -0.2958
     21 C5         48.6320   24.2150   44.7530 C.ar      1 ADP         0.1045
     22 C6         47.2080   24.0210   44.3970 C.ar      1 ADP         0.1298
     23 N6         46.8590   23.3490   43.2820 N.pl3     1 ADP        -0.3152
     24 N1         46.2710   24.5350   45.2270 N.ar      1 ADP        -0.2698
     25 C2         46.6060   25.2070   46.3480 C.ar      1 ADP         0.0533
     26 N3         47.8800   25.4180   46.7250 N.ar      1 ADP        -0.2714
     27 C4         48.9170   24.9570   45.9870 C.ar      1 ADP         0.1613
     28 H          52.7468   23.0676   46.3931 H         1 ADP         0.0648
     29 H          54.4179   23.6446   46.7111 H         1 ADP         0.0648
     30 H          53.7233   24.9805   48.5495 H         1 ADP         0.0651
     31 H          51.4752   23.1112   48.7365 H         1 ADP         0.0648
     32 H          52.3915   25.2190   50.4351 H         1 ADP         0.2100
     33 H          49.6854   24.5151   48.4879 H         1 ADP         0.0676
     34 H          50.3067   25.7358   50.3796 H         1 ADP         0.2101
     35 H          50.7409   26.7508   47.1975 H         1 ADP         0.0996
     36 H          51.8503   24.2535   44.8730 H         1 ADP         0.1349
     37 H          45.8641   23.2220   43.0474 H         1 ADP         0.1820
     38 H          47.5872   22.9624   42.6645 H         1 ADP         0.1820
     39 H          45.8110   25.5952   46.9744 H         1 ADP         0.0996
@<TRIPOS>BOND
     1    1    2 ar 
     2    1    3 ar 
     3    1    4 ar 
     4    8    1 1  
     5    5    6 ar 
     6    5    7 ar 
     7    5    8 1  
     8    5    9 1  
     9    9   10 1  
    10   10   11 1  
    11   11   12 1  
    12   11   13 1  
    13   12   17 1  
    14   13   14 1  
    15   13   15 1  
    16   15   16 1  
    17   15   17 1  
    18   17   18 1  
    19   18   19 1  
    20   18   27 1  
    21   19   20 2  
    22   20   21 1  
    23   21   22 ar 
    24   21   27 ar 
    25   22   23 1  
    26   22   24 ar 
    27   24   25 ar 
    28   25   26 ar 
    29   26   27 ar 
    30   10   28 1  
    31   10   29 1  
    32   11   30 1  
    33   13   31 1  
    34   14   32 1  
    35   15   33 1  
    36   16   34 1  
    37   17   35 1  
    38   19   36 1  
    39   23   37 1  
    40   23   38 1  
    41   25   39 1  
@<TRIPOS>SUBSTRUCTURE
     1 ADP         1

