### 
### Created by X-TOOL on Fri Nov 18 12:30:07 2016
### 

@<TRIPOS>MOLECULE
3tmk_ligand
   80    84     1     0     0
SMALL
GAST_HUCK


@<TRIPOS>ATOM
      1 BN1         4.2900   -1.7260  139.9840 N.am      1 T5A        -0.1736
      2 BC6         4.5280   -0.4690  140.4720 C.2       1 T5A         0.0524
      3 BC2         5.0070   -2.2480  138.8960 C.2       1 T5A         0.3265
      4 BO2         4.8670   -3.3860  138.4690 O.2       1 T5A        -0.3843
      5 BN3         5.8980   -1.4020  138.3190 N.am      1 T5A        -0.1859
      6 BC4         6.1270   -0.0800  138.6370 C.2       1 T5A         0.1930
      7 BO4         6.8850    0.6150  137.9270 O.2       1 T5A        -0.4079
      8 BC5         5.4030    0.3610  139.8740 C.2       1 T5A         0.0225
      9 BC7         5.6150    1.7650  140.4360 C.3       1 T5A        -0.0437
     10 BC5'        0.3640   -1.7110  142.3440 C.3       1 T5A         0.1127
     11 BC4'        1.2010   -2.5780  141.4880 C.3       1 T5A         0.1163
     12 BO4'        2.0850   -1.6600  140.8260 O.3       1 T5A        -0.3395
     13 BC1'        3.1850   -2.5270  140.5010 C.3       1 T5A         0.1757
     14 BC2'        3.4540   -3.1800  141.8870 C.3       1 T5A         0.0308
     15 BC3'        2.0550   -3.4850  142.3590 C.3       1 T5A         0.0889
     16 BO3'        1.8610   -4.8440  142.1230 O.3       1 T5A        -0.3890
     17 PA          0.5740   -0.2150  144.5230 P.3       1 T5A         0.2978
     18 O1A        -0.4000    0.8180  144.0390 O.co2     1 T5A        -0.6127
     19 O2A         1.7070    0.2920  145.3480 O.co2     1 T5A        -0.6127
     20 BO5'        1.1650   -1.1710  143.3890 O.3       1 T5A        -0.2476
     21 O3A        -0.2090   -1.2920  145.3720 O.3       1 T5A        -0.1265
     22 PB         -1.3500   -1.2000  146.5580 P.3       1 T5A         0.3361
     23 O1B        -2.6630   -1.6900  146.0730 O.co2     1 T5A        -0.6079
     24 O2B        -1.2530    0.2370  146.9620 O.co2     1 T5A        -0.6079
     25 O3B        -0.8640   -2.1200  147.7120 O.3       1 T5A        -0.1210
     26 PC          0.3250   -3.0530  148.0890 P.3       1 T5A         0.3367
     27 O1C        -0.0620   -4.4670  148.0180 O.co2     1 T5A        -0.6078
     28 O2C         1.6970   -2.5930  147.7130 O.co2     1 T5A        -0.6078
     29 O3C         0.1100   -2.5000  149.6540 O.3       1 T5A        -0.1210
     30 PD          0.9870   -1.8290  150.7720 P.3       1 T5A         0.3361
     31 O1D         1.1030   -0.3450  150.5690 O.co2     1 T5A        -0.6079
     32 O2D         2.1480   -2.6840  150.9140 O.co2     1 T5A        -0.6079
     33 O3D         0.0170   -1.9630  152.1370 O.3       1 T5A        -0.1265
     34 PE         -0.8840   -0.9520  152.9780 P.3       1 T5A         0.2978
     35 O1E         0.0520   -0.0940  153.7560 O.co2     1 T5A        -0.6127
     36 O2E        -1.8250   -0.1820  152.1320 O.co2     1 T5A        -0.6127
     37 AO5'       -1.6450   -2.0510  153.8540 O.3       1 T5A        -0.2476
     38 AC5'       -2.5910   -3.0070  153.5380 C.3       1 T5A         0.1128
     39 AC4'       -3.3330   -3.4480  154.8180 C.3       1 T5A         0.1189
     40 AO4'       -2.5140   -4.1400  155.7540 O.3       1 T5A        -0.3364
     41 AC1'       -2.4840   -3.4000  156.9880 C.3       1 T5A         0.2010
     42 AC2'       -3.0080   -1.9750  156.6130 C.3       1 T5A         0.1385
     43 AO2'       -3.6380   -1.1960  157.6750 O.3       1 T5A        -0.3836
     44 AC3'       -4.0170   -2.2960  155.5450 C.3       1 T5A         0.1149
     45 AO3'       -5.1340   -2.9300  156.2020 O.3       1 T5A        -0.3864
     46 AN9        -1.0670   -3.4090  157.6030 N.pl3     1 T5A        -0.1919
     47 AC4        -0.5260   -4.2800  158.5250 C.ar      1 T5A         0.1613
     48 AN3        -1.1370   -5.3540  159.1040 N.ar      1 T5A        -0.2714
     49 AC2        -0.2780   -5.9920  159.9290 C.ar      1 T5A         0.0533
     50 AN1         0.9930   -5.6500  160.2400 N.ar      1 T5A        -0.2698
     51 AC6         1.5110   -4.4860  159.7730 C.ar      1 T5A         0.1298
     52 AN6         2.7160   -4.0260  160.1650 N.pl3     1 T5A        -0.3152
     53 AC5         0.7290   -3.8050  158.8230 C.ar      1 T5A         0.1045
     54 AN7         1.0000   -2.6730  158.1040 N.2       1 T5A        -0.2958
     55 AC8        -0.0670   -2.5170  157.3620 C.2       1 T5A         0.1123
     56 H1          3.9984   -0.1337  141.3625 H         1 T5A         0.1011
     57 H2          6.4521   -1.7812  137.5780 H         1 T5A         0.2259
     58 H3          5.0004    1.8952  141.3389 H         1 T5A         0.0296
     59 H4          5.3212    2.5100  139.6820 H         1 T5A         0.0296
     60 H5          6.6761    1.9011  140.6920 H         1 T5A         0.0296
     61 H6         -0.4557   -2.3029  142.7773 H         1 T5A         0.0648
     62 H7         -0.0544   -0.8920  141.7406 H         1 T5A         0.0648
     63 H8          0.5959   -3.1618  140.7788 H         1 T5A         0.0650
     64 H9          2.9067   -3.2867  139.7557 H         1 T5A         0.0959
     65 H10         3.9631   -2.4813  142.5672 H         1 T5A         0.0344
     66 H11         4.0526   -4.0975  141.7884 H         1 T5A         0.0344
     67 H12         1.9088   -3.2575  143.4252 H         1 T5A         0.0622
     68 H13         0.9530   -5.0670  142.2909 H         1 T5A         0.2099
     69 H14        -2.0940   -3.8776  153.0853 H         1 T5A         0.0648
     70 H15        -3.3133   -2.5847  152.8239 H         1 T5A         0.0648
     71 H16        -4.1191   -4.1458  154.4937 H         1 T5A         0.0651
     72 H17        -3.1719   -3.8579  157.7140 H         1 T5A         0.0996
     73 H18        -2.1799   -1.3776  156.2039 H         1 T5A         0.0676
     74 H19        -4.3486   -1.6984  158.0558 H         1 T5A         0.2101
     75 H20        -4.2960   -1.4418  154.9105 H         1 T5A         0.0648
     76 H21        -5.5012   -2.3349  156.8450 H         1 T5A         0.2100
     77 H22        -0.6553   -6.8918  160.4014 H         1 T5A         0.0996
     78 H23         3.0756   -3.1375  159.7879 H         1 T5A         0.1820
     79 H24         3.2771   -4.5630  160.8416 H         1 T5A         0.1820
     80 H25        -0.1486   -1.7339  156.6097 H         1 T5A         0.1349
@<TRIPOS>BOND
     1    1   13 1  
     2    1    3 am 
     3    1    2 am 
     4    2    8 2  
     5    8    9 1  
     6    8    6 1  
     7    6    7 2  
     8    6    5 am 
     9    5    3 am 
    10    3    4 2  
    11   13   14 1  
    12   13   12 1  
    13   12   11 1  
    14   11   15 1  
    15   11   10 1  
    16   10   20 1  
    17   20   17 1  
    18   17   21 1  
    19   17   19 ar 
    20   17   18 ar 
    21   21   22 1  
    22   22   25 1  
    23   22   24 ar 
    24   22   23 ar 
    25   25   26 1  
    26   26   29 1  
    27   26   28 ar 
    28   26   27 ar 
    29   29   30 1  
    30   30   33 1  
    31   30   32 ar 
    32   30   31 ar 
    33   33   34 1  
    34   34   37 1  
    35   34   36 ar 
    36   34   35 ar 
    37   37   38 1  
    38   38   39 1  
    39   39   44 1  
    40   39   40 1  
    41   40   41 1  
    42   41   46 1  
    43   41   42 1  
    44   42   44 1  
    45   42   43 1  
    46   44   45 1  
    47   46   55 1  
    48   46   47 1  
    49   47   53 ar 
    50   47   48 ar 
    51   48   49 ar 
    52   49   50 ar 
    53   50   51 ar 
    54   51   53 ar 
    55   51   52 1  
    56   53   54 1  
    57   54   55 2  
    58   15   16 1  
    59   15   14 1  
    60    2   56 1  
    61    5   57 1  
    62    9   58 1  
    63    9   59 1  
    64    9   60 1  
    65   10   61 1  
    66   10   62 1  
    67   11   63 1  
    68   13   64 1  
    69   14   65 1  
    70   14   66 1  
    71   15   67 1  
    72   16   68 1  
    73   38   69 1  
    74   38   70 1  
    75   39   71 1  
    76   41   72 1  
    77   42   73 1  
    78   43   74 1  
    79   44   75 1  
    80   45   76 1  
    81   49   77 1  
    82   52   78 1  
    83   52   79 1  
    84   55   80 1  
@<TRIPOS>SUBSTRUCTURE
     1 T5A         1

